!- Windows Line endings 

Version,
    9.2;                      !- Version Identifier

SimulationControl,
    Yes,                      !- Do Zone Sizing Calculation
    Yes,                      !- Do System Sizing Calculation
    Yes,                      !- Do Plant Sizing Calculation
    No,                       !- Run Simulation for Sizing Periods
    YES;                      !- Run Simulation for Weather File Run Periods

Building,
    Hospital,                 !- Name
    0,                        !- North Axis
    City,                     !- Terrain
    0.04,                     !- Loads Convergence Tolerance Value
    0.2,                      !- Temperature Convergence Tolerance Value
    FullInteriorAndExterior,    !- Solar Distribution
    25,                       !- Maximum Number of Warmup Days
    6;                        !- Minimum Number of Warmup Days

ShadowCalculation,
    AverageOverDaysInFrequency,    !- Calculation Method
    30;                       !- Calculation Frequency

SurfaceConvectionAlgorithm:Inside,
    TARP;                     !- Algorithm

SurfaceConvectionAlgorithm:Outside,
    TARP;                     !- Algorithm

HeatBalanceAlgorithm,
    ConductionTransferFunction;    !- Algorithm

Timestep,
    6;                        !- Number of Timesteps per Hour

ConvergenceLimits,
    1,                        !- Minimum System Timestep
    20;                       !- Maximum HVAC Iterations

Site:Location,
    New.York-John.F.Kennedy.Intl.AP_NY_USA WMO=744860,    !- Name
    40.66,                    !- Latitude
    -73.8,                    !- Longitude
    -5,                       !- Time Zone
    7;                        !- Elevation

SizingPeriod:DesignDay,
    New.York-John.F.Kennedy.Intl.AP_NY_USA Ann Htg 99.6% Condns DB,    !- Name
    1,                        !- Month
    21,                       !- Day of Month
    WinterDesignDay,          !- Day Type
    -10.7,                    !- Maximum DryBulb Temperature
    0,                        !- Daily DryBulb Temperature Range
    DefaultMultipliers,       !- DryBulb Temperature Range Modifier Type
    ,                         !- DryBulb Temperature Range Modifier Day Schedule Name
    Wetbulb,                  !- Humidity Condition Type
    -10.7,                    !- Wetbulb or DewPoint at Maximum DryBulb
    ,                         !- Humidity Condition Day Schedule Name
    ,                         !- Humidity Ratio at Maximum DryBulb
    ,                         !- Enthalpy at Maximum DryBulb
    ,                         !- Daily WetBulb Temperature Range
    101241,                   !- Barometric Pressure
    7.5,                      !- Wind Speed
    320,                      !- Wind Direction
    No,                       !- Rain Indicator
    No,                       !- Snow Indicator
    No,                       !- Daylight Saving Time Indicator
    ASHRAEClearSky,           !- Solar Model Indicator
    ,                         !- Beam Solar Day Schedule Name
    ,                         !- Diffuse Solar Day Schedule Name
    ,                         !- ASHRAE Clear Sky Optical Depth for Beam Irradiance taub
    ,                         !- ASHRAE Clear Sky Optical Depth for Diffuse Irradiance taud
    0;                        !- Sky Clearness

SizingPeriod:DesignDay,
    New.York-John.F.Kennedy.Intl.AP_NY_USA Ann Clg .4% Condns DB=>MWB,    !- Name
    7,                        !- Month
    21,                       !- Day of Month
    SummerDesignDay,          !- Day Type
    32.1,                     !- Maximum DryBulb Temperature
    7.4,                      !- Daily DryBulb Temperature Range
    DefaultMultipliers,       !- DryBulb Temperature Range Modifier Type
    ,                         !- DryBulb Temperature Range Modifier Day Schedule Name
    Wetbulb,                  !- Humidity Condition Type
    23.1,                     !- Wetbulb or DewPoint at Maximum DryBulb
    ,                         !- Humidity Condition Day Schedule Name
    ,                         !- Humidity Ratio at Maximum DryBulb
    ,                         !- Enthalpy at Maximum DryBulb
    ,                         !- Daily WetBulb Temperature Range
    101241,                   !- Barometric Pressure
    5.6,                      !- Wind Speed
    230,                      !- Wind Direction
    No,                       !- Rain Indicator
    No,                       !- Snow Indicator
    No,                       !- Daylight Saving Time Indicator
    ASHRAETau,                !- Solar Model Indicator
    ,                         !- Beam Solar Day Schedule Name
    ,                         !- Diffuse Solar Day Schedule Name
    0.541,                    !- ASHRAE Clear Sky Optical Depth for Beam Irradiance taub
    1.8;                      !- ASHRAE Clear Sky Optical Depth for Diffuse Irradiance taud

RunPeriod,
    RUNPERIOD 1,              !- Name
    1,                        !- Begin Month
    1,                        !- Begin Day of Month
    ,                         !- Begin Year
    12,                       !- End Month
    31,                       !- End Day of Month
    ,                         !- End Year
    Sunday,                   !- Day of Week for Start Day
    No,                       !- Use Weather File Holidays and Special Days
    No,                       !- Use Weather File Daylight Saving Period
    No,                       !- Apply Weekend Holiday Rule
    Yes,                      !- Use Weather File Rain Indicators
    Yes;                      !- Use Weather File Snow Indicators

RunPeriodControl:SpecialDays,
    New Years Day,            !- Name
    January 1,                !- Start Date
    1,                        !- Duration
    Holiday;                  !- Special Day Type

RunPeriodControl:SpecialDays,
    Veterans Day,             !- Name
    November 11,              !- Start Date
    1,                        !- Duration
    Holiday;                  !- Special Day Type

RunPeriodControl:SpecialDays,
    Christmas,                !- Name
    December 25,              !- Start Date
    1,                        !- Duration
    Holiday;                  !- Special Day Type

RunPeriodControl:SpecialDays,
    Independence Day,         !- Name
    July 4,                   !- Start Date
    1,                        !- Duration
    Holiday;                  !- Special Day Type

RunPeriodControl:SpecialDays,
    MLK Day,                  !- Name
    3rd Monday in January,    !- Start Date
    1,                        !- Duration
    Holiday;                  !- Special Day Type

RunPeriodControl:SpecialDays,
    Presidents Day,           !- Name
    3rd Monday in February,    !- Start Date
    1,                        !- Duration
    Holiday;                  !- Special Day Type

RunPeriodControl:SpecialDays,
    Memorial Day,             !- Name
    Last Monday in May,       !- Start Date
    1,                        !- Duration
    Holiday;                  !- Special Day Type

RunPeriodControl:SpecialDays,
    Labor Day,                !- Name
    1st Monday in September,    !- Start Date
    1,                        !- Duration
    Holiday;                  !- Special Day Type

RunPeriodControl:SpecialDays,
    Columbus Day,             !- Name
    2nd Monday in October,    !- Start Date
    1,                        !- Duration
    Holiday;                  !- Special Day Type

RunPeriodControl:SpecialDays,
    Thanksgiving,             !- Name
    4th Thursday in November,    !- Start Date
    1,                        !- Duration
    Holiday;                  !- Special Day Type

RunPeriodControl:DaylightSavingTime,
    2nd Sunday in March,      !- Start Date
    1st Sunday in November;    !- End Date

Site:GroundTemperature:FCfactorMethod,
    14,                       !- January Ground Temperature
    7.3,                      !- February Ground Temperature
    3.3,                      !- March Ground Temperature
    1.2,                      !- April Ground Temperature
    -0.2,                     !- May Ground Temperature
    5.6,                      !- June Ground Temperature
    10.9,                     !- July Ground Temperature
    16.1,                     !- August Ground Temperature
    21.7,                     !- September Ground Temperature
    25,                       !- October Ground Temperature
    24.8,                     !- November Ground Temperature
    19.9;                     !- December Ground Temperature

Site:WaterMainsTemperature,
    Correlation,              !- Calculation Method
    ,                         !- Temperature Schedule Name
    12.4666666666667,         !- Annual Average Outdoor Air Temperature
    25.2;                     !- Maximum Difference In Monthly Average Outdoor Air Temperatures

ScheduleTypeLimits,
    Any Number;               !- Name

ScheduleTypeLimits,
    Fraction,                 !- Name
    0,                        !- Lower Limit Value
    1,                        !- Upper Limit Value
    Continuous;               !- Numeric Type

ScheduleTypeLimits,
    Temperature,              !- Name
    -60,                      !- Lower Limit Value
    200,                      !- Upper Limit Value
    Continuous;               !- Numeric Type

ScheduleTypeLimits,
    On/Off,                   !- Name
    0,                        !- Lower Limit Value
    1,                        !- Upper Limit Value
    Discrete;                 !- Numeric Type

ScheduleTypeLimits,
    Control Type,             !- Name
    0,                        !- Lower Limit Value
    4,                        !- Upper Limit Value
    Discrete;                 !- Numeric Type

ScheduleTypeLimits,
    Humidity,                 !- Name
    10,                       !- Lower Limit Value
    90,                       !- Upper Limit Value
    Continuous;               !- Numeric Type

ScheduleTypeLimits,
    Number;                   !- Name

Schedule:Compact,
    Patrms_ExtraElecHeatC_Sch,    !- Name
    On/Off,                   !- Schedule Type Limits Name
    Through: 12/31,           !- Field 1
    For: AllDays,             !- Field 2
    Until: 24:00,             !- Field 3
    1;                        !- Field 4

Schedule:Compact,
    Patrms_ExtraWaterHeatC_Sch,    !- Name
    On/Off,                   !- Schedule Type Limits Name
    Through: 12/31,           !- Field 1
    For: AllDays,             !- Field 2
    Until: 24:00,             !- Field 3
    1;                        !- Field 4

Schedule:Compact,
    ER_ExtraElecHeatC_Sch,    !- Name
    On/Off,                   !- Schedule Type Limits Name
    Through: 12/31,           !- Field 1
    For: AllDays,             !- Field 2
    Until: 24:00,             !- Field 3
    1;                        !- Field 4

Schedule:Compact,
    ER_ExtraWaterHeatC_Sch,    !- Name
    On/Off,                   !- Schedule Type Limits Name
    Through: 12/31,           !- Field 1
    For: AllDays,             !- Field 2
    Until: 24:00,             !- Field 3
    1;                        !- Field 4

Schedule:Compact,
    OR_ExtraElecHeatC_Sch,    !- Name
    On/Off,                   !- Schedule Type Limits Name
    Through: 12/31,           !- Field 1
    For: AllDays,             !- Field 2
    Until: 24:00,             !- Field 3
    1;                        !- Field 4

Schedule:Compact,
    OR_ExtraWaterHeatC_Sch,    !- Name
    On/Off,                   !- Schedule Type Limits Name
    Through: 12/31,           !- Field 1
    For: AllDays,             !- Field 2
    Until: 24:00,             !- Field 3
    1;                        !- Field 4

Schedule:Compact,
    ICU_ExtraElecHeatC_Sch,    !- Name
    On/Off,                   !- Schedule Type Limits Name
    Through: 12/31,           !- Field 1
    For: AllDays,             !- Field 2
    Until: 24:00,             !- Field 3
    1;                        !- Field 4

Schedule:Compact,
    ICU_ExtraWaterHeatC_Sch,    !- Name
    On/Off,                   !- Schedule Type Limits Name
    Through: 12/31,           !- Field 1
    For: AllDays,             !- Field 2
    Until: 24:00,             !- Field 3
    1;                        !- Field 4

Schedule:Compact,
    Labs_ExtraElecHeatC_Sch,    !- Name
    On/Off,                   !- Schedule Type Limits Name
    Through: 12/31,           !- Field 1
    For: AllDays,             !- Field 2
    Until: 24:00,             !- Field 3
    1;                        !- Field 4

Schedule:Compact,
    Labs_ExtraWaterHeatC_Sch,    !- Name
    On/Off,                   !- Schedule Type Limits Name
    Through: 12/31,           !- Field 1
    For: AllDays,             !- Field 2
    Until: 24:00,             !- Field 3
    1;                        !- Field 4

Schedule:Compact,
    Hours_of_operation,       !- Name
    on/off,                   !- Schedule Type Limits Name
    Through: 12/31,           !- Field 1
    For: AllDays,             !- Field 2
    Until: 24:00,             !- Field 3
    1.0;                      !- Field 4

Schedule:Compact,
    Exterior_Lgt_ALWAYS_ON,    !- Name
    Fraction,                 !- Schedule Type Limits Name
    Through: 12/31,           !- Field 1
    For: AllDays,             !- Field 2
    Until: 24:00,             !- Field 3
    1;                        !- Field 4

Schedule:Compact,
    ALWAYS_ON,                !- Name
    Fraction,                 !- Schedule Type Limits Name
    Through: 12/31,           !- Field 1
    For: AllDays,             !- Field 2
    Until: 24:00,             !- Field 3
    1.0;                      !- Field 4

Schedule:Compact,
    ALWAYS_OFF,               !- Name
    Fraction,                 !- Schedule Type Limits Name
    Through: 12/31,           !- Field 1
    For: AllDays,             !- Field 2
    Until: 24:00,             !- Field 3
    0.0;                      !- Field 4

Schedule:Compact,
    HVACOperationSchd,        !- Name
    on/off,                   !- Schedule Type Limits Name
    Through: 12/31,           !- Field 1
    For: AllDays,             !- Field 2
    Until: 24:00,             !- Field 3
    1.0;                      !- Field 4

Schedule:Compact,
    BLDG_LIGHT_CORRIDOR_SCH,    !- Name
    Fraction,                 !- Schedule Type Limits Name
    Through: 12/31,           !- Field 1
    For: Weekdays,            !- Field 2
    Until: 8:00,              !- Field 3
    0.5,                      !- Field 4
    Until: 16:00,             !- Field 5
    0.9,                      !- Field 6
    Until: 24:00,             !- Field 7
    0.5,                      !- Field 8
    For: SummerDesignDay,     !- Field 9
    Until: 24:00,             !- Field 10
    1,                        !- Field 11
    For: WinterDesignDay,     !- Field 12
    Until: 24:00,             !- Field 13
    0,                        !- Field 14
    For: Saturday,            !- Field 15
    Until: 8:00,              !- Field 16
    0.5,                      !- Field 17
    Until: 18:00,             !- Field 18
    0.8,                      !- Field 19
    Until: 24:00,             !- Field 20
    0.5,                      !- Field 21
    For: Sunday Holidays AllOtherDays,    !- Field 22
    Until: 8:00,              !- Field 23
    0.5,                      !- Field 24
    Until: 16:00,             !- Field 25
    0.7,                      !- Field 26
    Until: 24:00,             !- Field 27
    0.5;                      !- Field 28

Schedule:Compact,
    BLDG_LIGHT_EXAM_SCH,      !- Name
    Fraction,                 !- Schedule Type Limits Name
    Through: 12/31,           !- Field 1
    For: Weekdays,            !- Field 2
    Until: 8:00,              !- Field 3
    0.5,                      !- Field 4
    Until: 16:00,             !- Field 5
    0.9,                      !- Field 6
    Until: 24:00,             !- Field 7
    0.5,                      !- Field 8
    For: SummerDesignDay,     !- Field 9
    Until: 24:00,             !- Field 10
    1,                        !- Field 11
    For: WinterDesignDay,     !- Field 12
    Until: 24:00,             !- Field 13
    0,                        !- Field 14
    For: Saturday,            !- Field 15
    Until: 8:00,              !- Field 16
    0.5,                      !- Field 17
    Until: 18:00,             !- Field 18
    0.8,                      !- Field 19
    Until: 24:00,             !- Field 20
    0.5,                      !- Field 21
    For: Sunday Holidays AllOtherDays,    !- Field 22
    Until: 8:00,              !- Field 23
    0.5,                      !- Field 24
    Until: 16:00,             !- Field 25
    0.7,                      !- Field 26
    Until: 24:00,             !- Field 27
    0.5;                      !- Field 28

Schedule:Compact,
    BLDG_LIGHT_EXTD_SCH,      !- Name
    Fraction,                 !- Schedule Type Limits Name
    Through: 12/31,           !- Field 1
    For: Weekdays,            !- Field 2
    Until: 8:00,              !- Field 3
    0.5,                      !- Field 4
    Until: 16:00,             !- Field 5
    0.9,                      !- Field 6
    Until: 24:00,             !- Field 7
    0.5,                      !- Field 8
    For: SummerDesignDay,     !- Field 9
    Until: 24:00,             !- Field 10
    1,                        !- Field 11
    For: WinterDesignDay,     !- Field 12
    Until: 24:00,             !- Field 13
    0,                        !- Field 14
    For: Saturday,            !- Field 15
    Until: 8:00,              !- Field 16
    0.5,                      !- Field 17
    Until: 18:00,             !- Field 18
    0.8,                      !- Field 19
    Until: 24:00,             !- Field 20
    0.5,                      !- Field 21
    For: Sunday Holidays AllOtherDays,    !- Field 22
    Until: 8:00,              !- Field 23
    0.5,                      !- Field 24
    Until: 16:00,             !- Field 25
    0.7,                      !- Field 26
    Until: 24:00,             !- Field 27
    0.5;                      !- Field 28

Schedule:Compact,
    BLDG_LIGHT_LOBBYFLR1_SCH,    !- Name
    Fraction,                 !- Schedule Type Limits Name
    Through: 12/31,           !- Field 1
    For: Weekdays,            !- Field 2
    Until: 7:00,              !- Field 3
    0.1,                      !- Field 4
    Until: 8:00,              !- Field 5
    0.496,                    !- Field 6
    Until: 16:00,             !- Field 7
    0.8928,                   !- Field 8
    Until: 22:00,             !- Field 9
    0.2976,                   !- Field 10
    Until: 23:00,             !- Field 11
    0.3,                      !- Field 12
    Until: 24:00,             !- Field 13
    0.1,                      !- Field 14
    For: SummerDesignDay,     !- Field 15
    Until: 24:00,             !- Field 16
    1,                        !- Field 17
    For: WinterDesignDay,     !- Field 18
    Until: 24:00,             !- Field 19
    0,                        !- Field 20
    For: Saturday,            !- Field 21
    Until: 7:00,              !- Field 22
    0.1,                      !- Field 23
    Until: 8:00,              !- Field 24
    0.1984,                   !- Field 25
    Until: 18:00,             !- Field 26
    0.3968,                   !- Field 27
    Until: 19:00,             !- Field 28
    0.0992,                   !- Field 29
    Until: 24:00,             !- Field 30
    0.1,                      !- Field 31
    For: Sunday Holidays AllOtherDays,    !- Field 32
    Until: 8:00,              !- Field 33
    0.05,                     !- Field 34
    Until: 16:00,             !- Field 35
    0.0992,                   !- Field 36
    Until: 24:00,             !- Field 37
    0.05;                     !- Field 38

Schedule:Compact,
    BLDG_LIGHT_LOBBYFLR5_SCH,    !- Name
    Fraction,                 !- Schedule Type Limits Name
    Through: 12/31,           !- Field 1
    For: Weekdays,            !- Field 2
    Until: 7:00,              !- Field 3
    0.1,                      !- Field 4
    Until: 8:00,              !- Field 5
    0.5,                      !- Field 6
    Until: 16:00,             !- Field 7
    0.9,                      !- Field 8
    Until: 23:00,             !- Field 9
    0.3,                      !- Field 10
    Until: 24:00,             !- Field 11
    0.1,                      !- Field 12
    For: SummerDesignDay,     !- Field 13
    Until: 24:00,             !- Field 14
    1,                        !- Field 15
    For: WinterDesignDay,     !- Field 16
    Until: 24:00,             !- Field 17
    0,                        !- Field 18
    For: Saturday,            !- Field 19
    Until: 7:00,              !- Field 20
    0.1,                      !- Field 21
    Until: 8:00,              !- Field 22
    0.2,                      !- Field 23
    Until: 18:00,             !- Field 24
    0.4,                      !- Field 25
    Until: 24:00,             !- Field 26
    0.1,                      !- Field 27
    For: Sunday Holidays AllOtherDays,    !- Field 28
    Until: 8:00,              !- Field 29
    0.05,                     !- Field 30
    Until: 16:00,             !- Field 31
    0.1,                      !- Field 32
    Until: 24:00,             !- Field 33
    0.05;                     !- Field 34

Schedule:Compact,
    BLDG_LIGHT_NURSEFLR1_SCH,    !- Name
    Fraction,                 !- Schedule Type Limits Name
    Through: 12/31,           !- Field 1
    For: Weekdays,            !- Field 2
    Until: 8:00,              !- Field 3
    0.5,                      !- Field 4
    Until: 16:00,             !- Field 5
    0.9,                      !- Field 6
    Until: 24:00,             !- Field 7
    0.5,                      !- Field 8
    For: SummerDesignDay,     !- Field 9
    Until: 24:00,             !- Field 10
    1,                        !- Field 11
    For: WinterDesignDay,     !- Field 12
    Until: 24:00,             !- Field 13
    0,                        !- Field 14
    For: Saturday,            !- Field 15
    Until: 8:00,              !- Field 16
    0.5,                      !- Field 17
    Until: 18:00,             !- Field 18
    0.8,                      !- Field 19
    Until: 24:00,             !- Field 20
    0.5,                      !- Field 21
    For: Sunday Holidays AllOtherDays,    !- Field 22
    Until: 8:00,              !- Field 23
    0.5,                      !- Field 24
    Until: 16:00,             !- Field 25
    0.7,                      !- Field 26
    Until: 24:00,             !- Field 27
    0.5;                      !- Field 28

Schedule:Compact,
    BLDG_LIGHT_NURSEFLR234_SCH,    !- Name
    Fraction,                 !- Schedule Type Limits Name
    Through: 12/31,           !- Field 1
    For: Weekdays,            !- Field 2
    Until: 8:00,              !- Field 3
    0.5,                      !- Field 4
    Until: 16:00,             !- Field 5
    0.9,                      !- Field 6
    Until: 24:00,             !- Field 7
    0.5,                      !- Field 8
    For: SummerDesignDay,     !- Field 9
    Until: 24:00,             !- Field 10
    1,                        !- Field 11
    For: WinterDesignDay,     !- Field 12
    Until: 24:00,             !- Field 13
    0,                        !- Field 14
    For: Saturday,            !- Field 15
    Until: 8:00,              !- Field 16
    0.5,                      !- Field 17
    Until: 18:00,             !- Field 18
    0.8,                      !- Field 19
    Until: 24:00,             !- Field 20
    0.5,                      !- Field 21
    For: Sunday Holidays AllOtherDays,    !- Field 22
    Until: 8:00,              !- Field 23
    0.5,                      !- Field 24
    Until: 16:00,             !- Field 25
    0.7,                      !- Field 26
    Until: 24:00,             !- Field 27
    0.5;                      !- Field 28

Schedule:Compact,
    BLDG_LIGHT_OFFICE_BSMT_SCH,    !- Name
    Fraction,                 !- Schedule Type Limits Name
    Through: 12/31,           !- Field 1
    For: Weekdays,            !- Field 2
    Until: 7:00,              !- Field 3
    0.1,                      !- Field 4
    Until: 8:00,              !- Field 5
    0.447405,                 !- Field 6
    Until: 16:00,             !- Field 7
    0.805329,                 !- Field 8
    Until: 22:00,             !- Field 9
    0.268443,                 !- Field 10
    Until: 23:00,             !- Field 11
    0.3,                      !- Field 12
    Until: 24:00,             !- Field 13
    0.1,                      !- Field 14
    For: SummerDesignDay,     !- Field 15
    Until: 24:00,             !- Field 16
    1,                        !- Field 17
    For: WinterDesignDay,     !- Field 18
    Until: 24:00,             !- Field 19
    0,                        !- Field 20
    For: Saturday,            !- Field 21
    Until: 7:00,              !- Field 22
    0.1,                      !- Field 23
    Until: 8:00,              !- Field 24
    0.178962,                 !- Field 25
    Until: 18:00,             !- Field 26
    0.357924,                 !- Field 27
    Until: 19:00,             !- Field 28
    0.089481,                 !- Field 29
    Until: 24:00,             !- Field 30
    0.1,                      !- Field 31
    For: Sunday Holidays AllOtherDays,    !- Field 32
    Until: 8:00,              !- Field 33
    0.05,                     !- Field 34
    Until: 16:00,             !- Field 35
    0.089481,                 !- Field 36
    Until: 24:00,             !- Field 37
    0.05;                     !- Field 38

Schedule:Compact,
    BLDG_LIGHT_OFFICE_SCH,    !- Name
    Fraction,                 !- Schedule Type Limits Name
    Through: 12/31,           !- Field 1
    For: Weekdays,            !- Field 2
    Until: 7:00,              !- Field 3
    0.1,                      !- Field 4
    Until: 8:00,              !- Field 5
    0.40595,                  !- Field 6
    Until: 16:00,             !- Field 7
    0.73071,                  !- Field 8
    Until: 22:00,             !- Field 9
    0.24357,                  !- Field 10
    Until: 23:00,             !- Field 11
    0.3,                      !- Field 12
    Until: 24:00,             !- Field 13
    0.1,                      !- Field 14
    For: SummerDesignDay,     !- Field 15
    Until: 24:00,             !- Field 16
    1,                        !- Field 17
    For: WinterDesignDay,     !- Field 18
    Until: 24:00,             !- Field 19
    0,                        !- Field 20
    For: Saturday,            !- Field 21
    Until: 7:00,              !- Field 22
    0.1,                      !- Field 23
    Until: 8:00,              !- Field 24
    0.16238,                  !- Field 25
    Until: 18:00,             !- Field 26
    0.32476,                  !- Field 27
    Until: 19:00,             !- Field 28
    0.08119,                  !- Field 29
    Until: 24:00,             !- Field 30
    0.1,                      !- Field 31
    For: Sunday Holidays AllOtherDays,    !- Field 32
    Until: 8:00,              !- Field 33
    0.05,                     !- Field 34
    Until: 16:00,             !- Field 35
    0.08119,                  !- Field 36
    Until: 24:00,             !- Field 37
    0.05;                     !- Field 38

Schedule:Compact,
    BLDG_LIGHT_RADIOLOGY_SCH,    !- Name
    Fraction,                 !- Schedule Type Limits Name
    Through: 12/31,           !- Field 1
    For: Weekdays,            !- Field 2
    Until: 7:00,              !- Field 3
    0.1,                      !- Field 4
    Until: 8:00,              !- Field 5
    0.5,                      !- Field 6
    Until: 16:00,             !- Field 7
    0.9,                      !- Field 8
    Until: 23:00,             !- Field 9
    0.3,                      !- Field 10
    Until: 24:00,             !- Field 11
    0.1,                      !- Field 12
    For: SummerDesignDay,     !- Field 13
    Until: 24:00,             !- Field 14
    1,                        !- Field 15
    For: WinterDesignDay,     !- Field 16
    Until: 24:00,             !- Field 17
    0,                        !- Field 18
    For: Saturday,            !- Field 19
    Until: 7:00,              !- Field 20
    0.1,                      !- Field 21
    Until: 8:00,              !- Field 22
    0.2,                      !- Field 23
    Until: 18:00,             !- Field 24
    0.4,                      !- Field 25
    Until: 24:00,             !- Field 26
    0.1,                      !- Field 27
    For: Sunday Holidays AllOtherDays,    !- Field 28
    Until: 8:00,              !- Field 29
    0.05,                     !- Field 30
    Until: 16:00,             !- Field 31
    0.1,                      !- Field 32
    Until: 24:00,             !- Field 33
    0.05;                     !- Field 34

Schedule:Compact,
    BLDG_LIGHT_SCH,           !- Name
    Fraction,                 !- Schedule Type Limits Name
    Through: 12/31,           !- Field 1
    For: Weekdays,            !- Field 2
    Until: 7:00,              !- Field 3
    0.1,                      !- Field 4
    Until: 8:00,              !- Field 5
    0.5,                      !- Field 6
    Until: 16:00,             !- Field 7
    0.9,                      !- Field 8
    Until: 23:00,             !- Field 9
    0.3,                      !- Field 10
    Until: 24:00,             !- Field 11
    0.1,                      !- Field 12
    For: SummerDesignDay,     !- Field 13
    Until: 24:00,             !- Field 14
    1,                        !- Field 15
    For: WinterDesignDay,     !- Field 16
    Until: 24:00,             !- Field 17
    0,                        !- Field 18
    For: Saturday,            !- Field 19
    Until: 7:00,              !- Field 20
    0.1,                      !- Field 21