!-Generator IDFEditor 1.50
!-Option SortedOrder

!-NOTE: All comments with '!-' are ignored by the IDFEditor and are generated automatically.
!-      Use '!' comments if they need to be retained when using the IDFEditor.


!-   ===========  ALL OBJECTS IN CLASS: VERSION ===========

Version,
    9.2;                     !- Version Identifier


!-   ===========  ALL OBJECTS IN CLASS: SIMULATIONCONTROL ===========

SimulationControl,
    No,                      !- Do Zone Sizing Calculation
    No,                      !- Do System Sizing Calculation
    No,                      !- Do Plant Sizing Calculation
    No,                      !- Run Simulation for Sizing Periods
    Yes,                     !- Run Simulation for Weather File Run Periods
    No,                      !- Do HVAC Sizing Simulation for Sizing Periods
    1;                       !- Maximum Number of HVAC Sizing Simulation Passes


!-   ===========  ALL OBJECTS IN CLASS: BUILDING ===========

Building,
    OfficeCL-8,              !- Name
    0,                       !- North Axis {deg}
    City,                    !- Terrain
    0.07,                    !- Loads Convergence Tolerance Value
    0.4,                     !- Temperature Convergence Tolerance Value {deltaC}
    FullInteriorAndExterior, !- Solar Distribution
    25,                      !- Maximum Number of Warmup Days
    6;                       !- Minimum Number of Warmup Days


!-   ===========  ALL OBJECTS IN CLASS: SHADOWCALCULATION ===========

ShadowCalculation,
    AverageOverDaysInFrequency,  !- Calculation Method
    20,                      !- Calculation Frequency
    200,                     !- Maximum Figures in Shadow Overlap Calculations
    SutherlandHodgman,       !- Polygon Clipping Algorithm
    SimpleSkyDiffuseModeling,!- Sky Diffuse Modeling Algorithm
    InternalCalculation,     !- External Shading Calculation Method
    No,                      !- Output External Shading Calculation Results
    No,                      !- Disable Self-Shading Within Shading Zone Groups
    No;                      !- Disable Self-Shading From Shading Zone Groups to Other Zones


!-   ===========  ALL OBJECTS IN CLASS: HEATBALANCEALGORITHM ===========

HeatBalanceAlgorithm,
    ConductionTransferFunction,  !- Algorithm
    200,                     !- Surface Temperature Upper Limit {C}
    ,                        !- Minimum Surface Convection Heat Transfer Coefficient Value {W/m2-K}
    1000;                    !- Maximum Surface Convection Heat Transfer Coefficient Value {W/m2-K}


!-   ===========  ALL OBJECTS IN CLASS: TIMESTEP ===========

Timestep,
    4;                       !- Number of Timesteps per Hour


!-   ===========  ALL OBJECTS IN CLASS: SITE:LOCATION ===========

Site:Location,
    BRA_SP_Sao.Paulo-837800, !- Name
    -23.62,                  !- Latitude {deg}
    -46.65,                  !- Longitude {deg}
    -3,                      !- Time Zone {hr}
    802;                     !- Elevation {m}


!-   ===========  ALL OBJECTS IN CLASS: SIZINGPERIOD:DESIGNDAY ===========

SizingPeriod:DesignDay,
    BRA_SP_Sao.Paulo-837800-winter,  !- Name
    7,                       !- Month
    21,                      !- Day of Month
    WinterDesignDay,         !- Day Type
    8.9,                     !- Maximum Dry-Bulb Temperature {C}
    0,                       !- Daily Dry-Bulb Temperature Range {deltaC}
    DefaultMultipliers,      !- Dry-Bulb Temperature Range Modifier Type
    ,                        !- Dry-Bulb Temperature Range Modifier Day Schedule Name
    ,                        !- Humidity Condition Type
    8.9,                     !- Wetbulb or DewPoint at Maximum Dry-Bulb {C}
    ,                        !- Humidity Condition Day Schedule Name
    ,                        !- Humidity Ratio at Maximum Dry-Bulb {kgWater/kgDryAir}
    ,                        !- Enthalpy at Maximum Dry-Bulb {J/kg}
    ,                        !- Daily Wet-Bulb Temperature Range {deltaC}
    92054,                   !- Barometric Pressure {Pa}
    2.3,                     !- Wind Speed {m/s}
    160,                     !- Wind Direction {deg}
    ,                        !- Rain Indicator
    ,                        !- Snow Indicator
    ,                        !- Daylight Saving Time Indicator
    ASHRAEClearSky,          !- Solar Model Indicator
    ,                        !- Beam Solar Day Schedule Name
    ,                        !- Diffuse Solar Day Schedule Name
    ,                        !- ASHRAE Clear Sky Optical Depth for Beam Irradiance (taub) {dimensionless}
    ,                        !- ASHRAE Clear Sky Optical Depth for Diffuse Irradiance (taud) {dimensionless}
    0;                       !- Sky Clearness

SizingPeriod:DesignDay,
    BRA_SP_Sao.Paulo-837800-summer,  !- Name
    2,                       !- Month
    21,                      !- Day of Month
    SummerDesignDay,         !- Day Type
    32.1,                    !- Maximum Dry-Bulb Temperature {C}
    8.1,                     !- Daily Dry-Bulb Temperature Range {deltaC}
    DefaultMultipliers,      !- Dry-Bulb Temperature Range Modifier Type
    ,                        !- Dry-Bulb Temperature Range Modifier Day Schedule Name
    ,                        !- Humidity Condition Type
    20.4,                    !- Wetbulb or DewPoint at Maximum Dry-Bulb {C}
    ,                        !- Humidity Condition Day Schedule Name
    ,                        !- Humidity Ratio at Maximum Dry-Bulb {kgWater/kgDryAir}
    ,                        !- Enthalpy at Maximum Dry-Bulb {J/kg}
    ,                        !- Daily Wet-Bulb Temperature Range {deltaC}
    92054,                   !- Barometric Pressure {Pa}
    3.4,                     !- Wind Speed {m/s}
    330,                     !- Wind Direction {deg}
    ,                        !- Rain Indicator
    ,                        !- Snow Indicator
    ,                        !- Daylight Saving Time Indicator
    ASHRAETau,               !- Solar Model Indicator
    ,                        !- Beam Solar Day Schedule Name
    ,                        !- Diffuse Solar Day Schedule Name
    0.383,                   !- ASHRAE Clear Sky Optical Depth for Beam Irradiance (taub) {dimensionless}
    0.2589;                  !- ASHRAE Clear Sky Optical Depth for Diffuse Irradiance (taud) {dimensionless}


!-   ===========  ALL OBJECTS IN CLASS: RUNPERIOD ===========

RunPeriod,
    BRA_SP_Sao.Paulo-837800, !- Name
    1,                       !- Begin Month
    1,                       !- Begin Day of Month
    ,                        !- Begin Year
    12,                      !- End Month
    31,                      !- End Day of Month
    ,                        !- End Year
    ,                        !- Day of Week for Start Day
    No,                      !- Use Weather File Holidays and Special Days
    No,                      !- Use Weather File Daylight Saving Period
    No,                      !- Apply Weekend Holiday Rule
    Yes,                     !- Use Weather File Rain Indicators
    No,                      !- Use Weather File Snow Indicators
    No;                      !- Treat Weather as Actual


!-   ===========  ALL OBJECTS IN CLASS: SITE:GROUNDTEMPERATURE:BUILDINGSURFACE ===========

Site:GroundTemperature:BuildingSurface,
    20.5,                    !- January Ground Temperature {C}
    21.5,                    !- February Ground Temperature {C}
    21.7,                    !- March Ground Temperature {C}
    21.5,                    !- April Ground Temperature {C}
    20.1,                    !- May Ground Temperature {C}
    18.6,                    !- June Ground Temperature {C}
    17.2,                    !- July Ground Temperature {C}
    16.2,                    !- August Ground Temperature {C}
    15.9,                    !- September Ground Temperature {C}
    16.5,                    !- October Ground Temperature {C}
    17.6,                    !- November Ground Temperature {C}
    19.1;                    !- December Ground Temperature {C}


!-   ===========  ALL OBJECTS IN CLASS: SCHEDULETYPELIMITS ===========

ScheduleTypeLimits,
    Fraction,                !- Name
    0,                       !- Lower Limit Value
    1,                       !- Upper Limit Value
    Continuous,              !- Numeric Type
    Dimensionless;           !- Unit Type

ScheduleTypeLimits,
    Any Number;              !- Name


!-   ===========  ALL OBJECTS IN CLASS: SCHEDULE:COMPACT ===========

Schedule:Compact,
    WORK_EFF_SCH,            !- Name
    Fraction,                !- Schedule Type Limits Name
    Through: 12/31,          !- Field 1
    For: AllDays,            !- Field 2
    Until: 24:00,            !- Field 3
    0.0;                     !- Field 4

Schedule:Compact,
    CLOTHING_SCH,            !- Name
    Any Number,              !- Schedule Type Limits Name
    Through: 12/31,          !- Field 1
    For: AllDays,            !- Field 2
    Until: 24:00,            !- Field 3
    0.5;                     !- Field 4

Schedule:Compact,
    AIR_VELO_SCH,            !- Name
    Any Number,              !- Schedule Type Limits Name
    Through: 12/31,          !- Field 1
    For: AllDays,            !- Field 2
    Until: 24:00,            !- Field 3
    0.2;                     !- Field 4

Schedule:Compact,
    WORK_HOURS_SCH,          !- Name
    Fraction,                !- Schedule Type Limits Name
    Through: 12/31,          !- Field 1
    For: Weekdays,           !- Field 2
    Until: 6:00,             !- Field 3
    0,                       !- Field 4
    Until: 18:00,            !- Field 5
    1,                       !- Field 6
    Until: 24:00,            !- Field 7
    0,                       !- Field 8
    For: Saturday,           !- Field 9
    Until: 24:00,            !- Field 10
    0,                       !- Field 11
    For: Sunday Holidays AllOtherDays,  !- Field 12
    Until: 24:00,            !- Field 13
    0;                       !- Field 14

Schedule:Compact,
    ACTIVITY_SCH,            !- Name
    Any Number,              !- Schedule Type Limits Name
    Through: 12/31,          !- Field 1
    For: AllDays,            !- Field 2
    Until: 24:00,            !- Field 3
    126;                     !- Field 4

Schedule:Compact,
    HVAC_Sch_F1,             !- Name
    Fraction,                !- Schedule Type Limits Name
    Through: 12/31,          !- Field 1
    For: Weekdays,           !- Field 2
    Until: 6:00,             !- Field 3
    0,                       !- Field 4
    Until: 18:00,            !- Field 5
    1,                       !- Field 6
    Until: 24:00,            !- Field 7
    0,                       !- Field 8
    For: Saturday,           !- Field 9
    Until: 24:00,            !- Field 10
    0,                       !- Field 11
    For: Sunday Holidays AllOtherDays,  !- Field 12
    Until: 24:00,            !- Field 13
    0;                       !- Field 14

Schedule:Compact,
    HVAC_Sch_F2,             !- Name
    Fraction,                !- Schedule Type Limits Name
    Through: 12/31,          !- Field 1
    For: Weekdays,           !- Field 2
    Until: 6:00,             !- Field 3
    0,                       !- Field 4
    Until: 18:00,            !- Field 5
    1,                       !- Field 6
    Until: 24:00,            !- Field 7
    0,                       !- Field 8
    For: Saturday,           !- Field 9
    Until: 24:00,            !- Field 10
    0,                       !- Field 11
    For: Sunday Holidays AllOtherDays,  !- Field 12
    Until: 24:00,            !- Field 13
    0;                       !- Field 14

Schedule:Compact,
    HVAC_Sch_F3,             !- Name
    Fraction,                !- Schedule Type Limits Name
    Through: 12/31,          !- Field 1
    For: Weekdays,           !- Field 2
    Until: 6:00,             !- Field 3
    0,                       !- Field 4
    Until: 18:00,            !- Field 5
    1,                       !- Field 6
    Until: 24:00,            !- Field 7
    0,                       !- Field 8
    For: Saturday,           !- Field 9
    Until: 24:00,            !- Field 10
    0,                       !- Field 11
    For: Sunday Holidays AllOtherDays,  !- Field 12
    Until: 24:00,            !- Field 13
    0;                       !- Field 14

Schedule:Compact,
    NV_Sch_F1,               !- Name
    Fraction,                !- Schedule Type Limits Name
    Through: 12/31,          !- Field 1
    For: Weekdays,           !- Field 2
    Until: 6:00,             !- Field 3
    0,                       !- Field 4
    Until: 18:00,            !- Field 5
    1,                       !- Field 6
    Until: 24:00,            !- Field 7
    0,                       !- Field 8
    For: Saturday,           !- Field 9
    Until: 24:00,            !- Field 10
    0,                       !- Field 11
    For: Sunday Holidays AllOtherDays,  !- Field 12
    Until: 24:00,            !- Field 13
    0;                       !- Field 14

Schedule:Compact,
    NV_Sch_F2,               !- Name
    Fraction,                !- Schedule Type Limits Name
    Through: 12/31,          !- Field 1
    For: Weekdays,           !- Field 2
    Until: 6:00,             !- Field 3
    0,                       !- Field 4
    Until: 18:00,            !- Field 5
    1,                       !- Field 6
    Until: 24:00,            !- Field 7
    0,                       !- Field 8
    For: Saturday,           !- Field 9
    Until: 24:00,            !- Field 10
    0,                       !- Field 11
    For: Sunday Holidays AllOtherDays,  !- Field 12
    Until: 24:00,            !- Field 13
    0;                       !- Field 14

Schedule:Compact,
    NV_Sch_F3,               !- Name
    Fraction,                !- Schedule Type Limits Name
    Through: 12/31,          !- Field 1
    For: Weekdays,           !- Field 2
    Until: 6:00,             !- Field 3
    0,                       !- Field 4
    Until: 18:00,            !- Field 5
    1,                       !- Field 6
    Until: 24:00,            !- Field 7
    0,                       !- Field 8
    For: Saturday,           !- Field 9
    Until: 24:00,            !- Field 10
    0,                       !- Field 11
    For: Sunday Holidays AllOtherDays,  !- Field 12
    Until: 24:00,            !- Field 13
    0;                       !- Field 14

Schedule:Compact,
    CONST_SCH,               !- Name
    Fraction,                !- Schedule Type Limits Name
    Through: 12/31,          !- Field 1
    For: AllDays,            !- Field 2
    Until: 24:00,            !- Field 3
    1;                       !- Field 4


!-   ===========  ALL OBJECTS IN CLASS: MATERIAL ===========

Material,
    Acoustic ceiling Knauf,  !- Name
    MediumSmooth,            !- Roughness
    0.0125,                  !- Thickness {m}
    5.7000000E-02,           !- Conductivity {W/m-K}
    888,                     !- Density {kg/m3}
    1339.000,                !- Specific Heat {J/kg-K}
    0.9000000,               !- Thermal Absorptance
    0.7000000;               !- Solar Absorptance

Material,
    Plaster 25mm,            !- Name
    MediumSmooth,            !- Roughness
    0.025,                   !- Thickness {m}
    1.15,                    !- Conductivity {W/m-K}
    2000,                    !- Density {kg/m3}
    1000,                    !- Specific Heat {J/kg-K}
    0.9,                     !- Thermal Absorptance
    0.5;                     !- Solar Absorptance

Material,
    Fiber cement 10mm,       !- Name
    MediumRough,             !- Roughness
    0.01,                    !- Thickness {m}
    0.95,                    !- Conductivity {W/m-K}
    1900,                    !- Density {kg/m3}
    840,                     !- Specific Heat {J/kg-K}
    0.9,                     !- Thermal Absorptance
    0.5;                     !- Solar Absorptance

Material,
    Carpet tile 5mm,         !- Name
    MediumRough,             !- Roughness
    0.005,                   !- Thickness {m}
    0.06,                    !- Conductivity {W/m-K}
    360,                     !- Density {kg/m3}
    590,                     !- Specific Heat {J/kg-K}
    0.9,                     !- Thermal Absorptance
    0.5;                     !- Solar Absorptance

Material,
    Brick 90mm,              !- Name
    MediumRough,             !- Roughness
    0.09,                    !- Thickness {m}
    0.9,                     !- Conductivity {W/m-K}
    1600,                    !- Density {kg/m3}
    920,                     !- Specific Heat {J/kg-K}
    0.9,                     !- Thermal Absorptance
    0.5;                     !- Solar Absorptance

Material,
    Concrete 200mm,          !- Name
    MediumRough,             !- Roughness
    0.1,                     !- Thickness {m}
    1.75,                    !- Conductivity {W/m-K}
    2380,                    !- Density {kg/m3}
    1000,                    !- Specific Heat {J/kg-K}
    0.9,                     !- Thermal Absorptance
    0.5;                     !- Solar Absorptance

Material,
    Brick 135mm,             !- Name
    MediumRough,             !- Roughness
    0.135,                   !- Thickness {m}
    0.9,                     !- Conductivity {W/m-K}
    1600,                    !- Density {kg/m3}
    920,                     !- Specific Heat {J/kg-K}
    0.9,                     !- Thermal Absorptance
    0.5;                     !- Solar Absorptance


!-   ===========  ALL OBJECTS IN CLASS: MATERIAL:AIRGAP ===========

Material:AirGap,
    Air 61mm,                !- Name
    0.16;                    !- Thermal Resistance {m2-K/W}

Material:AirGap,
    F05 Ceiling air space resistance,  !- Name
    0.18;                    !- Thermal Resistance {m2-K/W}


!-   ===========  ALL OBJECTS IN CLASS: WINDOWMATERIAL:SIMPLEGLAZINGSYSTEM ===========

WindowMaterial:SimpleGlazingSystem,
    glazing,                 !- Name
    5.782,                   !- U-Factor {W/m2-K}
    0.6,                     !- Solar Heat Gain Coefficient
    0.7;                     !- Visible Transmittance


!-   ===========  ALL OBJECTS IN CLASS: CONSTRUCTION ===========

Construction,
    Ceiling,                 !- Name
    Concrete 200mm,          !- Outside Layer
    F05 Ceiling air space resistance,  !- Layer 2
    Acoustic ceiling Knauf;  !- Layer 3

Construction,
    Ext wall,                !- Name
    Plaster 25mm,            !- Outside Layer
    Brick 90mm,              !- Layer 2
    Plaster 25mm;            !- Layer 3

Construction,
    Slab towards ground,     !- Name
    Carpet tile 5mm,         !- Outside Layer
    Concrete 200mm;          !- Layer 2

Construction,
    Int floor,               !- Name
    Carpet tile 5mm;         !- Outside Layer

Construction,
    Roof,                    !- Name
    Fiber cement 10mm,       !- Outside Layer
    Air 61mm,                !- Layer 2
    Concrete 200mm,          !- Layer 3
    F05 Ceiling air space resistance,  !- Layer 4
    Acoustic ceiling Knauf;  !- Layer 5

Construction,
    Glazing,                 !- Name
    glazing;                 !- Outside Layer

Construction,
    Int wall,                !- Name
    Plaster 25mm,            !- Outside Layer
    Brick 90mm,              !- Layer 2
    Plaster 25mm;            !- Layer 3


!-   ===========  ALL OBJECTS IN CLASS: GLOBALGEOMETRYRULES ===========

GlobalGeometryRules,
    UpperLeftCorner,         !- Starting Vertex Position
    Counterclockwise,        !- Vertex Entry Direction
    Relative,                !- Coordinate System
    Relative,                !- Daylighting Reference Point Coordinate System
    Relative;                !- Rectangular Surface Coordinate System


!-   ===========  ALL OBJECTS IN CLASS: ZONE ===========

Zone,
    Floor1,                  !- Name
    0,                       !- Direction of Relative North {deg}
    0,                       !- X Origin {m}
    0,                       !- Y Origin {m}
    0,                       !- Z Origin {m}
    1,                       !- Type
    1,                       !- Multiplier
    2.8,                     !- Ceiling Height {m}
    autocalculate,           !- Volume {m3}
    autocalculate,           !- Floor Area {m2}
    ,                        !- Zone Inside Convection Algorithm
    ,                        !- Zone Outside Convection Algorithm
    Yes;                     !- Part of Total Floor Area

Zone,
    Floor2,                  !- Name
    0,                       !- Direction of Relative North {deg}
    0,                       !- X Origin {m}
    0,                       !- Y Origin {m}
    8.4,                     !- Z Origin {m}
    1,                       !- Type
    6,                       !- Multiplier
    2.8,                     !- Ceiling Height {m}
    autocalculate,           !- Volume {m3}
    autocalculate,           !- Floor Area {m2}
    ,                        !- Zone Inside Convection Algorithm
    ,                        !- Zone Outside Convection Algorithm
    Yes;                     !- Part of Total Floor Area

Zone,
    Floor3,                  !- Name
    0,                       !- Direction of Relative North {deg}
    0,                       !- X Origin {m}
    0,                       !- Y Origin {m}
    19.6,                    !- Z Origin {m}
    1,                       !- Type
    1,                       !- Multiplier
    2.8,                     !- Ceiling Height {m}
    autocalculate,           !- Volume {m3}
    autocalculate,           !- Floor Area {m2}
    ,                        !- Zone Inside Convection Algorithm
    ,                        !- Zone Outside Convection Algorithm
    Yes;                     !- Part of Total Floor Area


!-   ===========  ALL OBJECTS IN CLASS: BUILDINGSURFACE:DETAILED ===========

BuildingSurface:Detailed,
    Surface Ceiling F2,      !- Name
    Ceiling,                 !- Surface Type
    Ceiling,                 !- Construction Name
    Floor2,                  !- Zone Name
    Adiabatic,               !- Outside Boundary Condition
    ,                        !- Outside Boundary Condition Object
    NoSun,                   !- Sun Exposure
    NoWind,                  !- Wind Exposure
    0,                       !- View Factor to Ground
    4,                       !- Number of Vertices
    0,                       !- Vertex 1 X-coordinate {m}
    20,                      !- Vertex 1 Y-coordinate {m}
    2.8,                     !- Vertex 1 Z-coordinate {m}
    0,                       !- Vertex 2 X-coordinate {m}
    0,                       !- Vertex 2 Y-coordinate {m}
    2.8,                     !- Vertex 2 Z-coordinate {m}
    30,                      !- Vertex 3 X-coordinate {m}
    0,                       !- Vertex 3 Y-coordinate {m}
    2.8,                     !- Vertex 3 Z-coordinate {m}
    30,                      !- Vertex 4 X-coordinate {m}
    20,                      !- Vertex 4 Y-coordinate {m}
    2.8;                     !- Vertex 4 Z-coordinate {m}

BuildingSurface:Detailed,
    Surface Ceiling F1,      !- Name
    Ceiling,                 !- Surface Type
    Ceiling,                 !- Construction Name
    Floor1,                  !- Zone Name
    Adiabatic,               !- Outside Boundary Condition
    ,                        !- Outside Boundary Condition Object
    NoSun,                   !- Sun Exposure
    NoWind,                  !- Wind Exposure
    0,                       !- View Factor to Ground
    4,                       !- Number of Vertices
    0,                       !- Vertex 1 X-coordinate {m}
    20,                      !- Vertex 1 Y-coordinate {m}
    2.8,                     !- Vertex 1 Z-coordinate {m}
    0,                       !- Vertex 2 X-coordinate {m}
    0,                       !- Vertex 2 Y-coordinate {m}
    2.8,                     !- Vertex 2 Z-coordinate {m}
    30,                      !- Vertex 3 X-coordinate {m}
    0,                       !- Vertex 3 Y-coordinate {m}
    2.8,                     !- Vertex 3 Z-coordinate {m}
    30,                      !- Vertex 4 X-coordinate {m}
    20,                      !- Vertex 4 Y-coordinate {m}
    2.8;                     !- Vertex 4 Z-coordinate {m}

BuildingSurface:Detailed,
    Surface North F1,        !- Name
    Wall,                    !- Surface Type
    Ext wall,                !- Construction Name
    Floor1,                  !- Zone Name
    Outdoors,                !- Outside Boundary Condition
    ,                        !- Outside Boundary Condition Object
    SunExposed,              !- Sun Exposure
    WindExposed,             !- Wind Exposure
    0.5,                     !- View Factor to Ground
    4,                       !- Number of Vertices
    30,                      !- Vertex 1 X-coordinate {m}
    20,                      !- Vertex 1 Y-coordinate {m}
    2.8,                     !- Vertex 1 Z-coordinate {m}
    30,                      !- Vertex 2 X-coordinate {m}
    20,                      !- Vertex 2 Y-coordinate {m}
    0,                       !- Vertex 2 Z-coordinate {m}
    0,                       !- Vertex 3 X-coordinate {m}
    20,                      !- Vertex 3 Y-coordinate {m}
    0,                       !- Vertex 3 Z-coordinate {m}
    0,                       !- Vertex 4 X-coordinate {m}
    20,                      !- Vertex 4 Y-coordinate {m}
    2.8;                     !- Vertex 4 Z-coordinate {m}

BuildingSurface:Detailed,
    Surface East F1,         !- Name
    Wall,                    !- Surface Type
    Ext wall,                !- Construction Name
    Floor1,                  !- Zone Name
    Outdoors,                !- Outside Boundary Condition
    ,                        !- Outside Boundary Condition Object
    SunExposed,              !- Sun Exposure
    WindExposed,             !- Wind Exposure
    0.5,                     !- View Factor to Ground
    4,                       !- Number of Vertices
    30,                      !- Vertex 1 X-coordinate {m}
    0,                       !- Vertex 1 Y-coordinate {m}
    2.8,                     !- Vertex 1 Z-coordinate {m}
    30,                      !- Vertex 2 X-coordinate {m}
    0,                       !- Vertex 2 Y-coordinate {m}
    0,                       !- Vertex 2 Z-coordinate {m}
    30,                      !- Vertex 3 X-coordinate {m}
    20,                      !- Vertex 3 Y-coordinate {m}
    0,                       !- Vertex 3 Z-coordinate {m}
    30,                      !- Vertex 4 X-coordinate {m}
    20,                      !- Vertex 4 Y-coordinate {m}
    2.8;                     !- Vertex 4 Z-coordinate {m}

BuildingSurface:Detailed,
    Surface South F1,        !- Name
    Wall,                    !- Surface Type
    Ext wall,                !- Construction Name
    Floor1,                  !- Zone Name
    Outdoors,                !- Outside Boundary Condition
    ,                        !- Outside Boundary Condition Object
    SunExposed,              !- Sun Exposure
    WindExposed,             !- Wind Exposure
    0.5,                     !- View Factor to Ground
    4,                       !- Number of Vertices
    0,                       !- Vertex 1 X-coordinate {m}
    0,                       !- Vertex 1 Y-coordinate {m}
    2.8,                     !- Vertex 1 Z-coordinate {m}
    0,                       !- Vertex 2 X-coordinate {m}
    0,                       !- Vertex 2 Y-coordinate {m}
    0,                       !- Vertex 2 Z-coordinate {m}
    30,                      !- Vertex 3 X-coordinate {m}
    0,                       !- Vertex 3 Y-coordinate {m}
    0,                       !- Vertex 3 Z-coordinate {m}
    30,                      !- Vertex 4 X-coordinate {m}
    0,                       !- Vertex 4 Y-coordinate {m}
    2.8;                     !- Vertex 4 Z-coordinate {m}

BuildingSurface:Detailed,
    Surface West F1,         !- Name
    Wall,                    !- Surface Type
    Ext wall,                !- Construction Name
    Floor1,                  !- Zone Name
    Outdoors,                !- Outside Boundary Condition
    ,                        !- Outside Boundary Condition Object
    SunExposed,              !- Sun Exposure
    WindExposed,             !- Wind Exposure
    0.5,                     !- View Factor to Ground
    4,                       !- Number of Vertices
    0,                       !- Vertex 1 X-coordinate {m}
    20,                      !- Vertex 1 Y-coordinate {m}
    2.8,                     !- Vertex 1 Z-coordinate {m}
    0,                       !- Vertex 2 X-coordinate {m}
    20,                      !- Vertex 2 Y-coordinate {m}
    0,                       !- Vertex 2 Z-coordinate {m}
    0,                       !- Vertex 3 X-coordinate {m}
    0,                       !- Vertex 3 Y-coordinate {m}
    0,                       !- Vertex 3 Z-coordinate {m}
    0,                       !- Vertex 4 X-coordinate {m}
    0,                       !- Vertex 4 Y-coordinate {m}
    2.8;                     !- Vertex 4 Z-coordinate {m}

BuildingSurface:Detailed,
    Surface Floor F1,        !- Name
    Floor,                   !- Surface Type
    Slab towards ground,     !- Construction Name
    Floor1,                  !- Zone Name
    Ground,                  !- Outside Boundary Condition
    ,                        !- Outside Boundary Condition Object
    NoSun,                   !- Sun Exposure
    NoWind,                  !- Wind Exposure
    1,                       !- View Factor to Ground
    4,                       !- Number of Vertices
    30,                      !- Vertex 1 X-coordinate {m}
    20,                      !- Vertex 1 Y-coordinate {m}
    0,                       !- Vertex 1 Z-coordinate {m}