!- Windows Line endings 

Version,
    9.2;                      !- Version Identifier

SimulationControl,
    Yes,                      !- Do Zone Sizing Calculation
    Yes,                      !- Do System Sizing Calculation
    Yes,                      !- Do Plant Sizing Calculation
    No,                       !- Run Simulation for Sizing Periods
    YES;                      !- Run Simulation for Weather File Run Periods

Building,
    RetailStandalone,         !- Name
    0,                        !- North Axis
    City,                     !- Terrain
    0.04,                     !- Loads Convergence Tolerance Value
    0.2,                      !- Temperature Convergence Tolerance Value
    FullInteriorAndExterior,    !- Solar Distribution
    25,                       !- Maximum Number of Warmup Days
    6;                        !- Minimum Number of Warmup Days

ShadowCalculation,
    AverageOverDaysInFrequency,    !- Calculation Method
    30,                       !- Calculation Frequency
    15000;                    !- Maximum Figures in Shadow Overlap Calculations

SurfaceConvectionAlgorithm:Inside,
    TARP;                     !- Algorithm

SurfaceConvectionAlgorithm:Outside,
    TARP;                     !- Algorithm

HeatBalanceAlgorithm,
    ConductionTransferFunction,    !- Algorithm
    200;                      !- Surface Temperature Upper Limit

Timestep,
    6;                        !- Number of Timesteps per Hour

ConvergenceLimits,
    1,                        !- Minimum System Timestep
    20;                       !- Maximum HVAC Iterations

Site:Location,
    New.York-John.F.Kennedy.Intl.AP_NY_USA WMO=744860,    !- Name
    40.66,                    !- Latitude
    -73.8,                    !- Longitude
    -5,                       !- Time Zone
    7;                        !- Elevation

SizingPeriod:DesignDay,
    New.York-John.F.Kennedy.Intl.AP_NY_USA Ann Htg 99.6% Condns DB,    !- Name
    1,                        !- Month
    21,                       !- Day of Month
    WinterDesignDay,          !- Day Type
    -10.7,                    !- Maximum DryBulb Temperature
    0,                        !- Daily DryBulb Temperature Range
    DefaultMultipliers,       !- DryBulb Temperature Range Modifier Type
    ,                         !- DryBulb Temperature Range Modifier Day Schedule Name
    Wetbulb,                  !- Humidity Condition Type
    -10.7,                    !- Wetbulb or DewPoint at Maximum DryBulb
    ,                         !- Humidity Condition Day Schedule Name
    ,                         !- Humidity Ratio at Maximum DryBulb
    ,                         !- Enthalpy at Maximum DryBulb
    ,                         !- Daily WetBulb Temperature Range
    101241,                   !- Barometric Pressure
    7.5,                      !- Wind Speed
    320,                      !- Wind Direction
    No,                       !- Rain Indicator
    No,                       !- Snow Indicator
    No,                       !- Daylight Saving Time Indicator
    ASHRAEClearSky,           !- Solar Model Indicator
    ,                         !- Beam Solar Day Schedule Name
    ,                         !- Diffuse Solar Day Schedule Name
    ,                         !- ASHRAE Clear Sky Optical Depth for Beam Irradiance taub
    ,                         !- ASHRAE Clear Sky Optical Depth for Diffuse Irradiance taud
    0;                        !- Sky Clearness

SizingPeriod:DesignDay,
    New.York-John.F.Kennedy.Intl.AP_NY_USA Ann Clg .4% Condns DB=>MWB,    !- Name
    7,                        !- Month
    21,                       !- Day of Month
    SummerDesignDay,          !- Day Type
    32.1,                     !- Maximum DryBulb Temperature
    7.4,                      !- Daily DryBulb Temperature Range
    DefaultMultipliers,       !- DryBulb Temperature Range Modifier Type
    ,                         !- DryBulb Temperature Range Modifier Day Schedule Name
    Wetbulb,                  !- Humidity Condition Type
    23.1,                     !- Wetbulb or DewPoint at Maximum DryBulb
    ,                         !- Humidity Condition Day Schedule Name
    ,                         !- Humidity Ratio at Maximum DryBulb
    ,                         !- Enthalpy at Maximum DryBulb
    ,                         !- Daily WetBulb Temperature Range
    101241,                   !- Barometric Pressure
    5.6,                      !- Wind Speed
    230,                      !- Wind Direction
    No,                       !- Rain Indicator
    No,                       !- Snow Indicator
    No,                       !- Daylight Saving Time Indicator
    ASHRAETau,                !- Solar Model Indicator
    ,                         !- Beam Solar Day Schedule Name
    ,                         !- Diffuse Solar Day Schedule Name
    0.541,                    !- ASHRAE Clear Sky Optical Depth for Beam Irradiance taub
    1.8;                      !- ASHRAE Clear Sky Optical Depth for Diffuse Irradiance taud

RunPeriod,
    RUNPERIOD 1,              !- Name
    1,                        !- Begin Month
    1,                        !- Begin Day of Month
    ,                         !- Begin Year
    12,                       !- End Month
    31,                       !- End Day of Month
    ,                         !- End Year
    Sunday,                   !- Day of Week for Start Day
    No,                       !- Use Weather File Holidays and Special Days
    No,                       !- Use Weather File Daylight Saving Period
    No,                       !- Apply Weekend Holiday Rule
    Yes,                      !- Use Weather File Rain Indicators
    Yes;                      !- Use Weather File Snow Indicators

RunPeriodControl:SpecialDays,
    New Years Day,            !- Name
    January 1,                !- Start Date
    1,                        !- Duration
    Holiday;                  !- Special Day Type

RunPeriodControl:SpecialDays,
    Veterans Day,             !- Name
    November 11,              !- Start Date
    1,                        !- Duration
    Holiday;                  !- Special Day Type

RunPeriodControl:SpecialDays,
    Christmas,                !- Name
    December 25,              !- Start Date
    1,                        !- Duration
    Holiday;                  !- Special Day Type

RunPeriodControl:SpecialDays,
    Independence Day,         !- Name
    July 4,                   !- Start Date
    1,                        !- Duration
    Holiday;                  !- Special Day Type

RunPeriodControl:SpecialDays,
    MLK Day,                  !- Name
    3rd Monday in January,    !- Start Date
    1,                        !- Duration
    Holiday;                  !- Special Day Type

RunPeriodControl:SpecialDays,
    Presidents Day,           !- Name
    3rd Monday in February,    !- Start Date
    1,                        !- Duration
    Holiday;                  !- Special Day Type

RunPeriodControl:SpecialDays,
    Memorial Day,             !- Name
    Last Monday in May,       !- Start Date
    1,                        !- Duration
    Holiday;                  !- Special Day Type

RunPeriodControl:SpecialDays,
    Labor Day,                !- Name
    1st Monday in September,    !- Start Date
    1,                        !- Duration
    Holiday;                  !- Special Day Type

RunPeriodControl:SpecialDays,
    Columbus Day,             !- Name
    2nd Monday in October,    !- Start Date
    1,                        !- Duration
    Holiday;                  !- Special Day Type

RunPeriodControl:SpecialDays,
    Thanksgiving,             !- Name
    4th Thursday in November,    !- Start Date
    1,                        !- Duration
    Holiday;                  !- Special Day Type

RunPeriodControl:DaylightSavingTime,
    2nd Sunday in March,      !- Start Date
    1st Sunday in November;    !- End Date

Site:GroundTemperature:FCfactorMethod,
    14,                       !- January Ground Temperature
    7.3,                      !- February Ground Temperature
    3.3,                      !- March Ground Temperature
    1.2,                      !- April Ground Temperature
    -0.2,                     !- May Ground Temperature
    5.6,                      !- June Ground Temperature
    10.9,                     !- July Ground Temperature
    16.1,                     !- August Ground Temperature
    21.7,                     !- September Ground Temperature
    25,                       !- October Ground Temperature
    24.8,                     !- November Ground Temperature
    19.9;                     !- December Ground Temperature

Site:WaterMainsTemperature,
    CORRELATION,              !- Calculation Method
    ,                         !- Temperature Schedule Name
    12.4666666666667,         !- Annual Average Outdoor Air Temperature
    25.2;                     !- Maximum Difference In Monthly Average Outdoor Air Temperatures

ScheduleTypeLimits,
    Any Number;               !- Name

ScheduleTypeLimits,
    Fraction,                 !- Name
    0,                        !- Lower Limit Value
    1,                        !- Upper Limit Value
    CONTINUOUS;               !- Numeric Type

ScheduleTypeLimits,
    Temperature,              !- Name
    -60,                      !- Lower Limit Value
    200,                      !- Upper Limit Value
    CONTINUOUS;               !- Numeric Type

ScheduleTypeLimits,
    On/Off,                   !- Name
    0,                        !- Lower Limit Value
    1,                        !- Upper Limit Value
    DISCRETE;                 !- Numeric Type

ScheduleTypeLimits,
    Control Type,             !- Name
    0,                        !- Lower Limit Value
    4,                        !- Upper Limit Value
    DISCRETE;                 !- Numeric Type

ScheduleTypeLimits,
    Humidity,                 !- Name
    10,                       !- Lower Limit Value
    90,                       !- Upper Limit Value
    CONTINUOUS;               !- Numeric Type

ScheduleTypeLimits,
    Number;                   !- Name

Schedule:Compact,
    FrontEntry_CoilSched,     !- Name
    Fraction,                 !- Schedule Type Limits Name
    Through: 12/31,           !- Field 1
    For: AllDays,             !- Field 2
    Until: 24:00,             !- Field 3
    1.0;                      !- Field 4

Schedule:Compact,
    FrontEntry_FanSched,      !- Name
    Fraction,                 !- Schedule Type Limits Name
    Through: 12/31,           !- Field 1
    For: AllDays,             !- Field 2
    Until: 24:00,             !- Field 3
    1.0;                      !- Field 4

Schedule:Compact,
    BLDG_LIGHT_BACK_SCH,      !- Name
    Fraction,                 !- Schedule Type Limits Name
    Through: 12/31,           !- Field 1
    For: Weekdays,            !- Field 2
    Until: 7:00,              !- Field 3
    0.05,                     !- Field 4
    Until: 8:00,              !- Field 5
    0.156409254,              !- Field 6
    Until: 9:00,              !- Field 7
    0.312818508,              !- Field 8
    Until: 18:00,             !- Field 9
    0.703841643,              !- Field 10
    Until: 21:00,             !- Field 11
    0.391023135,              !- Field 12
    Until: 22:00,             !- Field 13
    0.2,                      !- Field 14
    Until: 24:00,             !- Field 15
    0.05,                     !- Field 16
    For: Saturday,            !- Field 17
    Until: 7:00,              !- Field 18
    0.05,                     !- Field 19
    Until: 8:00,              !- Field 20
    0.078204627,              !- Field 21
    Until: 9:00,              !- Field 22
    0.234613881,              !- Field 23
    Until: 10:00,             !- Field 24
    0.469227762,              !- Field 25
    Until: 18:00,             !- Field 26
    0.703841643,              !- Field 27
    Until: 19:00,             !- Field 28
    0.391023135,              !- Field 29
    Until: 21:00,             !- Field 30
    0.234613881,              !- Field 31
    Until: 22:00,             !- Field 32
    0.078204627,              !- Field 33
    Until: 24:00,             !- Field 34
    0.05,                     !- Field 35
    For: SummerDesignDay,     !- Field 36
    Until: 24:00,             !- Field 37
    1,                        !- Field 38
    For: WinterDesignDay,     !- Field 39
    Until: 24:00,             !- Field 40
    0,                        !- Field 41
    For: Sunday Holidays AllOtherDays,    !- Field 42
    Until: 9:00,              !- Field 43
    0.05,                     !- Field 44
    Until: 10:00,             !- Field 45
    0.078204627,              !- Field 46
    Until: 12:00,             !- Field 47
    0.312818508,              !- Field 48
    Until: 17:00,             !- Field 49
    0.469227762,              !- Field 50
    Until: 18:00,             !- Field 51
    0.312818508,              !- Field 52
    Until: 19:00,             !- Field 53
    0.156409254,              !- Field 54
    Until: 24:00,             !- Field 55
    0.05;                     !- Field 56

Schedule:Compact,
    BLDG_LIGHT_CORE_SCH,      !- Name
    Fraction,                 !- Schedule Type Limits Name
    Through: 12/31,           !- Field 1
    For: Weekdays,            !- Field 2
    Until: 7:00,              !- Field 3
    0.05,                     !- Field 4
    Until: 8:00,              !- Field 5
    0.2,                      !- Field 6
    Until: 9:00,              !- Field 7
    0.4,                      !- Field 8
    Until: 18:00,             !- Field 9
    0.9,                      !- Field 10
    Until: 21:00,             !- Field 11
    0.5,                      !- Field 12
    Until: 22:00,             !- Field 13
    0.2,                      !- Field 14
    Until: 24:00,             !- Field 15
    0.05,                     !- Field 16
    For: Saturday,            !- Field 17
    Until: 7:00,              !- Field 18
    0.05,                     !- Field 19
    Until: 8:00,              !- Field 20
    0.1,                      !- Field 21
    Until: 9:00,              !- Field 22
    0.3,                      !- Field 23
    Until: 10:00,             !- Field 24
    0.6,                      !- Field 25
    Until: 18:00,             !- Field 26
    0.9,                      !- Field 27
    Until: 19:00,             !- Field 28
    0.5,                      !- Field 29
    Until: 21:00,             !- Field 30
    0.3,                      !- Field 31
    Until: 22:00,             !- Field 32
    0.1,                      !- Field 33
    Until: 24:00,             !- Field 34
    0.05,                     !- Field 35
    For: SummerDesignDay,     !- Field 36
    Until: 24:00,             !- Field 37
    1,                        !- Field 38
    For: WinterDesignDay,     !- Field 39
    Until: 24:00,             !- Field 40
    0,                        !- Field 41
    For: Sunday Holidays AllOtherDays,    !- Field 42
    Until: 9:00,              !- Field 43
    0.05,                     !- Field 44
    Until: 10:00,             !- Field 45
    0.1,                      !- Field 46
    Until: 12:00,             !- Field 47
    0.4,                      !- Field 48
    Until: 17:00,             !- Field 49
    0.6,                      !- Field 50
    Until: 18:00,             !- Field 51
    0.4,                      !- Field 52
    Until: 19:00,             !- Field 53
    0.2,                      !- Field 54
    Until: 24:00,             !- Field 55
    0.05;                     !- Field 56

Schedule:Compact,
    BLDG_LIGHT_ENTRY_SCH,     !- Name
    Fraction,                 !- Schedule Type Limits Name
    Through: 12/31,           !- Field 1
    For: Weekdays,            !- Field 2
    Until: 7:00,              !- Field 3
    0.05,                     !- Field 4
    Until: 8:00,              !- Field 5
    0.164,                    !- Field 6
    Until: 9:00,              !- Field 7
    0.328,                    !- Field 8
    Until: 18:00,             !- Field 9
    0.738,                    !- Field 10
    Until: 21:00,             !- Field 11
    0.41,                     !- Field 12
    Until: 22:00,             !- Field 13
    0.2,                      !- Field 14
    Until: 24:00,             !- Field 15
    0.05,                     !- Field 16
    For: Saturday,            !- Field 17
    Until: 7:00,              !- Field 18
    0.05,                     !- Field 19
    Until: 8:00,              !- Field 20
    0.082,                    !- Field 21
    Until: 9:00,              !- Field 22
    0.246,                    !- Field 23
    Until: 10:00,             !- Field 24
    0.492,                    !- Field 25
    Until: 18:00,             !- Field 26
    0.738,                    !- Field 27
    Until: 19:00,             !- Field 28
    0.41,                     !- Field 29
    Until: 21:00,             !- Field 30
    0.246,                    !- Field 31
    Until: 22:00,             !- Field 32
    0.082,                    !- Field 33
    Until: 24:00,             !- Field 34
    0.05,                     !- Field 35
    For: SummerDesignDay,     !- Field 36
    Until: 24:00,             !- Field 37
    1,                        !- Field 38
    For: WinterDesignDay,     !- Field 39
    Until: 24:00,             !- Field 40
    0,                        !- Field 41
    For: Sunday Holidays AllOtherDays,    !- Field 42
    Until: 9:00,              !- Field 43
    0.05,                     !- Field 44
    Until: 10:00,             !- Field 45
    0.082,                    !- Field 46
    Until: 12:00,             !- Field 47
    0.328,                    !- Field 48
    Until: 17:00,             !- Field 49
    0.492,                    !- Field 50
    Until: 18:00,             !- Field 51
    0.328,                    !- Field 52
    Until: 19:00,             !- Field 53
    0.164,                    !- Field 54
    Until: 24:00,             !- Field 55
    0.05;                     !- Field 56

Schedule:Compact,
    BLDG_LIGHT_FRONT_SCH,     !- Name
    Fraction,                 !- Schedule Type Limits Name
    Through: 12/31,           !- Field 1
    For: Weekdays,            !- Field 2
    Until: 7:00,              !- Field 3
    0.05,                     !- Field 4
    Until: 8:00,              !- Field 5
    0.19364,                  !- Field 6
    Until: 9:00,              !- Field 7
    0.38728,                  !- Field 8
    Until: 18:00,             !- Field 9
    0.87138,                  !- Field 10
    Until: 21:00,             !- Field 11
    0.4841,                   !- Field 12
    Until: 22:00,             !- Field 13
    0.2,                      !- Field 14
    Until: 24:00,             !- Field 15
    0.05,                     !- Field 16
    For: Saturday,            !- Field 17
    Until: 7:00,              !- Field 18
    0.05,                     !- Field 19
    Until: 8:00,              !- Field 20
    0.09682,                  !- Field 21
    Until: 9:00,              !- Field 22
    0.29046,                  !- Field 23
    Until: 10:00,             !- Field 24
    0.58092,                  !- Field 25
    Until: 18:00,             !- Field 26
    0.87138,                  !- Field 27
    Until: 19:00,             !- Field 28
    0.4841,                   !- Field 29
    Until: 21:00,             !- Field 30
    0.29046,                  !- Field 31
    Until: 22:00,             !- Field 32
    0.09682,                  !- Field 33
    Until: 24:00,             !- Field 34
    0.05,                     !- Field 35
    For: SummerDesignDay,     !- Field 36
    Until: 24:00,             !- Field 37
    1,                        !- Field 38
    For: WinterDesignDay,     !- Field 39
    Until: 24:00,             !- Field 40
    0,                        !- Field 41
    For: Sunday Holidays AllOtherDays,    !- Field 42
    Until: 9:00,              !- Field 43
    0.05,                     !- Field 44
    Until: 10:00,             !- Field 45
    0.09682,                  !- Field 46
    Until: 12:00,             !- Field 47
    0.38728,                  !- Field 48
    Until: 17:00,             !- Field 49
    0.58092,                  !- Field 50
    Until: 18:00,             !- Field 51
    0.38728,                  !- Field 52
    Until: 19:00,             !- Field 53
    0.19364,                  !- Field 54
    Until: 24:00,             !- Field 55
    0.05;                     !- Field 56

Schedule:Compact,
    BLDG_LIGHT_SCH,           !- Name
    Fraction,                 !- Schedule Type Limits Name
    Through: 12/31,           !- Field 1
    For: Weekdays,            !- Field 2
    Until: 7:00,              !- Field 3
    0.05,                     !- Field 4
    Until: 8:00,              !- Field 5
    0.2,                      !- Field 6
    Until: 9:00,              !- Field 7
    0.4,                      !- Field 8
    Until: 18:00,             !- Field 9
    0.9,                      !- Field 10
    Until: 21:00,             !- Field 11
    0.5,                      !- Field 12
    Until: 22:00,             !- Field 13
    0.2,                      !- Field 14
    Until: 24:00,             !- Field 15
    0.05,                     !- Field 16
    For: Saturday,            !- Field 17
    Until: 7:00,              !- Field 18
    0.05,                     !- Field 19
    Until: 8:00,              !- Field 20
    0.1,                      !- Field 21
    Until: 9:00,              !- Field 22
    0.3,                      !- Field 23
    Until: 10:00,             !- Field 24
    0.6,                      !- Field 25
    Until: 18:00,             !- Field 26
    0.9,                      !- Field 27
    Until: 19:00,             !- Field 28
    0.5,                      !- Field 29
    Until: 21:00,             !- Field 30
    0.3,                      !- Field 31
    Until: 22:00,             !- Field 32
    0.1,                      !- Field 33
    Until: 24:00,             !- Field 34
    0.05,                     !- Field 35
    For: SummerDesignDay,     !- Field 36
    Until: 24:00,             !- Field 37
    1,                        !- Field 38
    For: WinterDesignDay,     !- Field 39
    Until: 24:00,             !- Field 40
    0,                        !- Field 41
    For: Sunday Holidays AllOtherDays,    !- Field 42
    Until: 9:00,              !- Field 43
    0.05,                     !- Field 44
    Until: 10:00,             !- Field 45
    0.1,                      !- Field 46
    Until: 12:00,             !- Field 47
    0.4,                      !- Field 48
    Until: 17:00,             !- Field 49
    0.6,                      !- Field 50
    Until: 18:00,             !- Field 51
    0.4,                      !- Field 52
    Until: 19:00,             !- Field 53
    0.2,                      !- Field 54
    Until: 24:00,             !- Field 55
    0.05;                     !- Field 56

Schedule:Compact,
    BLDG_OCC_SCH,             !- Name
    Fraction,                 !- Schedule Type Limits Name
    Through: 12/31,           !- Field 1
    For: Weekdays,            !- Field 2
    Until: 07:00,             !- Field 3
    0.0,                      !- Field 4
    Until: 08:00,             !- Field 5
    0.1,                      !- Field 6
    Until: 09:00,             !- Field 7
    0.2,                      !- Field 8
    Until: 11:00,             !- Field 9
    0.5,                      !- Field 10
    Until: 15:00,             !- Field 11
    0.7,                      !- Field 12
    Until: 16:00,             !- Field 13
    0.8,                      !- Field 14
    Until: 17:00,             !- Field 15
    0.7,                      !- Field 16
    Until: 19:00,             !- Field 17
    0.5,                      !- Field 18
    Until: 21:00,             !- Field 19
    0.3,                      !- Field 20
    Until: 24:00,             !- Field 21
    0.0,                      !- Field 22
    For: SummerDesignDay,     !- Field 23
    Until: 24:00,             !- Field 24
    1.0,                      !- Field 25
    For: Saturday,            !- Field 26
    Until: 07:00,             !- Field 27
    0.0,                      !- Field 28
    Until: 08:00,             !- Field 29
    0.1,                      !- Field 30
    Until: 09:00,             !- Field 31
    0.2,                      !- Field 32
    Until: 10:00,             !- Field 33
    0.5,                      !- Field 34
    Until: 11:00,             !- Field 35
    0.6,                      !- Field 36
    Until: 17:00,             !- Field 37
    0.8,                      !- Field 38
    Until: 18:00,             !- Field 39
    0.6,                      !- Field 40
    Until: 21:00,             !- Field 41
    0.2,                      !- Field 42
    Until: 22:00,             !- Field 43
    0.1,                      !- Field 44
    Until: 24:00,             !- Field 45
    0.0,                      !- Field 46
    For: WinterDesignDay,     !- Field 47
    Until: 24:00,             !- Field 48
    0.0,                      !- Field 49
    For: Sunday Holidays AllOtherDays,    !- Field 50
    Until: 09:00,             !- Field 51
    0.0,                      !- Field 52
    Until: 10:00,             !- Field 53
    0.1,                      !- Field 54
    Until: 12:00,             !- Field 55
    0.2,                      !- Field 56
    Until: 17:00,             !- Field 57
    0.4,                      !- Field 58
    Until: 18:00,             !- Field 59
    0.2,                      !- Field 60
    Until: 19:00,             !- Field 61
    0.1,                      !- Field 62
    Until: 24:00,             !- Field 63
    0.0;                      !- Field 64

Schedule:Compact,
    BLDG_EQUIP_SCH,           !- Name
    Fraction,                 !- Schedule Type Limits Name
    Through: 12/31,           !- Field 1
    For: Weekdays,            !- Field 2
    Until: 07:00,             !- Field 3
    0.1973725624,             !- Field 4
    Until: 08:00,             !- Field 5
    0.3988803288,             !- Field 6
    Until: 09:00,             !- Field 7
    0.5983204932,             !- Field 8
    Until: 19:00,             !- Field 9
    0.8974807398,             !- Field 10
    Until: 20:00,             !- Field 11
    0.6980405754,             !- Field 12
    Until: 21:00,             !- Field 13
    0.6980405754,             !- Field 14
    Until: 22:00,             !- Field 15
    0.1973725624,             !- Field 16
    Until: 24:00,             !- Field 17
    0.1973725624,             !- Field 18
    For: Saturday,            !- Field 19
    Until: 07:00,             !- Field 20
    0.1480294218,             !- Field 21
    Until: 08:00,             !- Field 22
    0.2991602466,             !- Field 23
    Until: 09:00,             !- Field 24
    0.498600411,              !- Field 25
    Until: 10:00,             !- Field 26
    0.7977606576,             !- Field 27
    Until: 18:00,             !- Field 28
    0.8974807398,             !- Field 29
    Until: 19:00,             !- Field 30
    0.6980405754,             !- Field 31
    Until: 21:00,             !- Field 32
    0.498600411,              !- Field 33
    Until: 22:00,             !- Field 34
    0.2991602466,             !- Field 35
    Until: 24:00,             !- Field 36
    0.1480294218,             !- Field 37
    For: SummerDesignDay,     !- Field 38
    Until: 24:00,             !- Field 39
    1.0,                      !- Field 40
    For: WinterDesignDay,     !- Field 41
    Until: 24:00,             !- Field 42
    0.0,                      !- Field 43
    For: Sunday Holidays AllOtherDays,    !- Field 44
    Until: 09:00,             !- Field 45
    0.1480294218,             !- Field 46
    Until: 10:00,             !- Field 47
    0.2991602466,             !- Field 48
    Until: 12:00,             !- Field 49
    0.5983204932,             !- Field 50
    Until: 17:00,             !- Field 51
    0.7977606576,             !- Field 52
    Until: 18:00,             !- Field 53
    0.5983204932,             !- Field 54
    Until: 19:00,             !- Field 55
    0.3988803288,             !- Field 56
    Until: 24:00,             !- Field 57
    0.1480294218;             !- Field 58

Schedule:Compact,
    BLDG_ELEVATORS,           !- Name
    Fraction,                 !- Schedule Type Limits Name
    Through: 12/31,           !- Field 1
    For: Weekdays SummerDesignDay,    !- Field 2
    Until: 07:00,             !- Field 3
    0.0,                      !- Field 4
    Until: 08:00,             !- Field 5
    0.12,                     !- Field 6
    Until: 09:00,             !- Field 7
    0.22,                     !- Field 8
    Until: 10:00,             !- Field 9
    0.64,                     !- Field 10
    Until: 11:00,             !- Field 11
    0.74,                     !- Field 12
    Until: 12:00,             !- Field 13
    0.68,                     !- Field 14
    Until: 13:00,             !- Field 15
    0.68,                     !- Field 16
    Until: 14:00,             !- Field 17
    0.71,                     !- Field 18
    Until: 15:00,             !- Field 19
    0.72,                     !- Field 20
    Until: 16:00,             !- Field 21
    0.72,                     !- Field 22
    Until: 17:00,             !- Field 23
    0.73,                     !- Field 24
    Until: 18:00,             !- Field 25
    0.68,                     !- Field 26
    Until: 19:00,             !- Field 27
    0.68,                     !- Field 28
    Until: 20:00,             !- Field 29
    0.58,                     !- Field 30
    Until: 21:00,             !- Field 31
    0.54,                     !- Field 32
    Until: 22:00,             !- Field 33
    0.00,                     !- Field 34