!-Generator IDFEditor 1.50
!-Option SortedOrder

!-NOTE: All comments with '!-' are ignored by the IDFEditor and are generated automatically.
!-      Use '!' comments if they need to be retained when using the IDFEditor.


!-   ===========  ALL OBJECTS IN CLASS: VERSION ===========

!The DOE Prototype Building Models were developed by Pacific Northwest National Laboratory (PNNL), under contract with the U.S.
!Department of Energy (DOE).  These building models were derived from DOE's Commercial Reference Building Models with modifications
!based on input from the ASHRAE Standard 90.1 committee, the Advanced Energy Design Guide series, and building industry experts. The
!prototypes models were developed to quantify energy saving impacts from newly published editions of ASHRAE Standard 90.1, 189.1, IECC,
!and other energy codes and standards.  The basic building descriptions can be found in the Scorecards posted at www.energycodes.gov
!website. The recommended citation of the prototype models is
!
!DOE and PNNL. 2020. Commercial Prototype Building Models, Richland, WA, Pacific Northwest National Laboratory. Available at https://www.energycodes.gov/development/commercial/prototype_models.
!
!Detailed descriptions of the prototype model development and addenda modeling strategies can be found in the following  reports:
!DOE, 2020. Preliminary Energy Savings Analysis: ANSI/ASHRAE/IES Standard 90.1-2019. Report prepared by Zhang, J., M. Rosenberg, J.
!Lerond, Y. Xie, Nambia, C., Y. Chen, R. Hart, M. Halverson, D. Maddox, and S. Goel, Richland, WA, Pacific Northwest National Laboratory.
!
!Zhang, J., Y. Chen, Y. Xie, M. Rosenberg, R. Hart. Energy and Energy Cost Savings Analysis of the 2018 IECC for Commercial Buildings.
!2018. PNNL-28125. Richland, WA: Pacific Northwest National Laboratory.
!
!DOE. 2017. Energy Savings Analysis: ANSI/ASHRAE/IES Standard 90.1-2016. Prepared by Athalye, R.A, M.A. Halverson, M.I. Rosenberg, B. Liu,
!J. Zhang, R. Hart, V.V. Mendon, S. Goel, Y. Chen, Y. Xie, and M. Zhao, Richland, WA, Pacific Northwest National Laboratory. https://www.energycodes.gov/sites/default/files/documents/02202018_Standard_90.1-2016_Determination_TSD.pdf.
!
!Zhang, J., Y. Xie, R.A. Athalye, J. Zhuge, M. Rosenberg, R. Hart, and B. Liu. Energy and Energy Cost Savings Analysis of the 2015 IECC
!for Commercial Buildings. 2015. PNNL-24269 Rev. 1. Richland, WA: Pacific Northwest National
!Laboratory. https://www.energycodes.gov/sites/default/files/documents/2015_IECC_Commercial_Analysis.pdf.
!
!Halverson M.A., M.I. Rosenberg, W. Wang, J. Zhang, V.V. Mendon, R.A. Athalye, Y. Xie, R. Hart, S. Goel, 2014. ANSI/ASHRAE/IES Standard
!90.1-2013 Determination of Energy Savings: Quantitative Analysis, PNNL-23479. Richland, WA: Pacific Northwest National Laboratory. https://www.energycodes.gov/sites/default/files/documents/901-2013_finalCommercialDeterminationQuantitativeAnalysis_TSD_0.pdf.
!
!Goel S., R.A. Athalye, W. Wang, J. Zhang, M.I. Rosenberg, Y. Xie, and R. Hart, et al. 2014. Enhancements to ASHRAE Standard 90.1
!Prototype Building Models. PNNL-23269. Richland, WA: Pacific Northwest National Laboratory. https://www.pnnl.gov/main/publications/external/technical_reports/PNNL-23269.pdf.
!
!Zhang J., R.A. Athalye, R. Hart, M.I. Rosenberg, Y. Xie, S. Goel, and V.V. Mendon, et al. 2013. Energy and Energy Cost Savings Analysis
!of the IECC for Commercial Buildings. PNNL-22760. Richland, WA: Pacific Northwest National Laboratory. http://www.pnnl.gov/main/publications/external/technical_reports/PNNL-22760.pdf.
!
!Thornton B.A., M.I. Rosenberg, E.E. Richman, W. Wang, Y. Xie, J. Zhang, H. Cho, VV Mendon, R.A. Athalye, and B. Liu. 2011. Achieving
!the 30% Goal: Energy and Cost Savings Analysis of ASHRAE Standard 90.1-2010. PNNL-20405. Richland, WA: Pacific Northwest National
!Laboratory.  https://www.energycodes.gov/sites/default/files/documents/BECP_Energy_Cost_Savings_STD2010_May2011_v00.pdf.
!
!
! WeatherFile:  USA_NY_New.York-John.F.Kennedy.Intl.AP.744860_TMY3.epw
! BEGIN ECONOMIZER MAP
! NOTE: no economizer map is created for this prototype due to water cooling
! END ECONOMIZER MAP
! GPARM parameters as input:
!    Case = ASHRAE901_OfficeLarge_STD2019_NewYork
!    SelectedCase =
!    basement_tempt = Zone4A_nonres_R7.5_OfficeLarge_New_York_STD2016_out.idf
!    avg_oa_tempt_ip = 54.44
!    maxdiff_oa_tempt_ip = 45.36
!    ext_wall_type = MassWall
!    nonres_ext_wall_ufactor = 0.590539352
!    roof_type = MetalDeckRoof
!    nonres_roof_ufactor = 0.181704416
!    roof_solar_absorp = 0.7
!    roof_emissivity = 0.9
!    nonres_window =
!    sidelighting_control = yes_AY
!    LPD_office = 6.888902667
!    exterior_lights_watts = 0
!    exterior_lights_watts_a = 12979.2
!    exterior_lights_watts_b = 968
!    economizer = DifferentialEnthalpy
!    skip_economizer_control = Yes
!    damper_sche = MinOA_MotorizedDamper_Sched
!    cc_sa_humidity = 0.0085
!    condenser_pump_head = 148556.6249
!    chilledwater_pump_head = 44761.27683
!    chilledwater_pump_secondary_head = 134283.8305
!    avg_oa_tempt = 12.46666667
!    maxdiff_oa_tempt = 25.2
!    infil = 0.00056896
!    oa_flow_per_area = 0.000431773
!    SAT_reset_switch = Yes
!    SAT_reset_T = 15.6
!    CAV_bas_ERV = No
!    economizer_lockout = LockoutWithHeating
!    eco_max_temp_limit = na
!    heating_damper_act = ReverseWithLimits
!    add_ck_vav_bot = Yes
!    add_ck_vav_mid = Yes
!    add_ck_vav_top = Yes
!    core_bottom_mdp = 0.2
!    perimeter_bot_zn_1_mdp = 0.2
!    perimeter_bot_zn_2_mdp = 0.2
!    perimeter_bot_zn_3_mdp = 0.2
!    perimeter_bot_zn_4_mdp = 0.2
!    core_mid_mdp = 0.2
!    perimeter_mid_zn_1_mdp = 0.2
!    perimeter_mid_zn_2_mdp = 0.2
!    perimeter_mid_zn_3_mdp = 0.2
!    perimeter_mid_zn_4_mdp = 0.2
!    core_top_mdp = 0.2
!    perimeter_top_zn_1_mdp = 0.2
!    perimeter_top_zn_2_mdp = 0.2
!    perimeter_top_zn_3_mdp = 0.2
!    perimeter_top_zn_4_mdp = 0.2
!    vav_bot_oaf = autosize
!    vav_mid_oaf = autosize
!    vav_top_oaf = autosize
!    BLDG_ELEVATORS_LIGHTS_FAN_SCH = ELEV_LIGHT_FAN_SCH_ADD_DF
!    BLDG_ELEVATORS_LIGHTS_FAN_POWER = 752
!    bsmt_new = National_OfficeLarge_ASHRAE901_STD2016_Zone4A_nonres_NY-NewYork-NY_out.idf
!    osc_key_wall = surfPropOthSdCoefBasementAvgWall
!    osc_key_floor = surfPropOthSdCoefBasementAvgFloor
!    BLDG_EQUIP_SCH = BLDG_EQUIP_SCH_ADV
!    addendum_cd = 2016AS
!    PumpCurve_flag = pump_ride_on_curve
!    pv_generator = no
!    pv_surface_area = 0
!    STD189_overhang = no
!    swh_et = 0.803988738
!    swh_ua = 11.25413987
!    ext_lgt_sch = Exterior_Lgt_ALWAYS_ON
!    VAV_bot_WITH_REHEAT_ERV = Yes
!    VAV_mid_WITH_REHEAT_ERV = Yes
!    VAV_top_WITH_REHEAT_ERV = Yes
!    CAV_bas_ERV_power = 911.0574
!    VAV_bot_WITH_REHEAT_ERV_power = 1506.812
!    VAV_mid_WITH_REHEAT_ERV_power = 1506.812
!    VAV_top_WITH_REHEAT_ERV_power = 1506.812
!    LTG_SCH_SET = LTG_SET_STD2013
!    transformer_size = 500000
!    transformer_eff = 0.991
!    economizer_coredatacenter = DifferentialEnthalpy
!    economizer_itcloset = NoEconomizer
!    HtgSetP_Sch = HTGSETP_SCH_YES_OPTIMUM
!    ClgSetP_Sch = CLGSETP_SCH_YES_OPTIMUM
!    wwr = 0.4
!    pipe_heat_loss = 7280.88
!    add_as = yes
!    preheatcoil_exists = no
!    AddendumAF_TowerFan = Yes
!    skip_EMSprogram = yes
!    BoilerAM = Yes
!    OA_BASED_OPTIMUM_START_EMS = yes
!    OPTIMUM_START_SF_DEPENDENT_EMS = no
!    HtgSetP_Sch_CAV_bas = HTGSETP_SCH_YES_OPTIMUM
!    ClgSetP_Sch_CAV_bas = CLGSETP_SCH_YES_OPTIMUM
!    Wfile_TMY3 = USA_NY_New.York-John.F.Kennedy.Intl.AP.744860_TMY3.epw
!    loadProfile = No
!    addendum_DV = yes
!    receptacle_ctrl_occ_reduction_frac = 0.949143263
!    receptacle_ctrl_unocc_reduction_frac = 0.736941088
!    HOTW_ST_Reset = No
!    CHW_ST_Reset = No
!    SHW_Pump_Head = 29891
!    CodeName = ASHRAE90.1_STD2019
!    CZ_City_Old = Baltimore
!    CZ_Label = 4A
!    exterior_lights_watts_c = 26027
!    Addendum_AH = Yes
!    LPD_Ctrl = 0.02
!    con_swingdoor_r = 0.475963827
!    CHW_deltaT = 8.33
!    HOTW_PumpCurve_flag = pump_ride_on_curve
!    office_standby_mode = Yes
!    DryClr_GpmperHp = 4.5
!    CRAC_basement = 3.878739046
!    CRAC_IT_closet = 4.005260634
!    nonres_window_u_factor = 0.36
!    nonres_window_shgc = 0.36
!    nonresLSG = 1.1
!    AnalysisPurpose = ProgressIndicator
!    AnalysisCodeName = ASHRAE901
!    AnalysisCodeYear = 2019
!    AnalysisAmendment = NoneAmend
!    AnalysisPrototype = OfficeLarge
!    AnalysisScope = National
!    AnalysisState = National
!    AnalysisClimateZone = 4A
!    AnalysisCity = USA_NY_NewYork
!    var_Ffactor_IP = 0.52
!    var_Cfactor_IP = 0.119
!    Core_ZN_SWH_flow = 3.66667e-05
! specify overhang_pf for 1891 codes
Version,
    9.2;                     !- Version Identifier


!-   ===========  ALL OBJECTS IN CLASS: SIMULATIONCONTROL ===========

SimulationControl,
    Yes,                     !- Do Zone Sizing Calculation
    Yes,                     !- Do System Sizing Calculation
    Yes,                     !- Do Plant Sizing Calculation
    No,                      !- Run Simulation for Sizing Periods
    YES;                     !- Run Simulation for Weather File Run Periods


!-   ===========  ALL OBJECTS IN CLASS: BUILDING ===========

Building,
    OfficeLarge,             !- Name
    0.0000,                  !- North Axis {deg}
    City,                    !- Terrain
    0.0400,                  !- Loads Convergence Tolerance Value
    0.2000,                  !- Temperature Convergence Tolerance Value {deltaC}
    FullExterior,            !- Solar Distribution
    25,                      !- Maximum Number of Warmup Days
    6;                       !- Minimum Number of Warmup Days


!-   ===========  ALL OBJECTS IN CLASS: SHADOWCALCULATION ===========

ShadowCalculation,
    AverageOverDaysInFrequency,  !- Calculation Method
    30;                      !- Calculation Frequency


!-   ===========  ALL OBJECTS IN CLASS: SURFACECONVECTIONALGORITHM:INSIDE ===========

SurfaceConvectionAlgorithm:Inside,
    TARP;                    !- Algorithm


!-   ===========  ALL OBJECTS IN CLASS: SURFACECONVECTIONALGORITHM:OUTSIDE ===========

SurfaceConvectionAlgorithm:Outside,
    TARP;                    !- Algorithm


!-   ===========  ALL OBJECTS IN CLASS: HEATBALANCEALGORITHM ===========

HeatBalanceAlgorithm,
    ConductionTransferFunction;  !- Algorithm


!-   ===========  ALL OBJECTS IN CLASS: TIMESTEP ===========

Timestep,
    6;                       !- Number of Timesteps per Hour


!-   ===========  ALL OBJECTS IN CLASS: CONVERGENCELIMITS ===========

ConvergenceLimits,
    1,                       !- Minimum System Timestep {minutes}
    20;                      !- Maximum HVAC Iterations


!-   ===========  ALL OBJECTS IN CLASS: SITE:LOCATION ===========

! Site:Location and design-day objects created by:
! ../../_p.bin/ddy2idf /projects/bigsim/weather/EnergyPlus/tmy3.new/all/USA_NY_New.York-John.F.Kennedy.Intl.AP.744860_TMY3.ddy
!
Site:Location,
    New.York-John.F.Kennedy.Intl.AP_NY_USA WMO=744860,  !- Name
    40.66,                   !- Latitude {deg}
    -73.80,                  !- Longitude {deg}
    -5.00,                   !- Time Zone {hr}
    7.00;                    !- Elevation {m}


!-   ===========  ALL OBJECTS IN CLASS: SIZINGPERIOD:WEATHERFILEDAYS ===========

SizingPeriod:WeatherFileDays,
    weatherfilesize,         !- Name
    1,                       !- Begin Month
    1,                       !- Begin Day of Month
    12,                      !- End Month
    31,                      !- End Day of Month
    Sunday,                  !- Day of Week for Start Day
    Yes,                     !- Use Weather File Daylight Saving Period
    Yes;                     !- Use Weather File Rain and Snow Indicators


!-   ===========  ALL OBJECTS IN CLASS: RUNPERIOD ===========

RunPeriod,
    RUNPERIOD 1,             !- Name
    1,                       !- Begin Month
    1,                       !- Begin Day of Month
    ,                        !- Begin Year
    12,                      !- End Month
    31,                      !- End Day of Month
    ,                        !- End Year
    Sunday,                  !- Day of Week for Start Day
    No,                      !- Use Weather File Holidays and Special Days
    No,                      !- Use Weather File Daylight Saving Period
    No,                      !- Apply Weekend Holiday Rule
    Yes,                     !- Use Weather File Rain Indicators
    Yes;                     !- Use Weather File Snow Indicators


!-   ===========  ALL OBJECTS IN CLASS: RUNPERIODCONTROL:SPECIALDAYS ===========

RunPeriodControl:SpecialDays,
    New Years Day,           !- Name
    January 1,               !- Start Date
    1,                       !- Duration {days}
    Holiday;                 !- Special Day Type

RunPeriodControl:SpecialDays,
    Veterans Day,            !- Name
    November 11,             !- Start Date
    1,                       !- Duration {days}
    Holiday;                 !- Special Day Type

RunPeriodControl:SpecialDays,
    Christmas,               !- Name
    December 25,             !- Start Date
    1,                       !- Duration {days}
    Holiday;                 !- Special Day Type

RunPeriodControl:SpecialDays,
    Independence Day,        !- Name
    July 4,                  !- Start Date
    1,                       !- Duration {days}
    Holiday;                 !- Special Day Type

RunPeriodControl:SpecialDays,
    MLK Day,                 !- Name
    3rd Monday in January,   !- Start Date
    1,                       !- Duration {days}
    Holiday;                 !- Special Day Type

RunPeriodControl:SpecialDays,
    Presidents Day,          !- Name
    3rd Monday in February,  !- Start Date
    1,                       !- Duration {days}
    Holiday;                 !- Special Day Type

RunPeriodControl:SpecialDays,
    Memorial Day,            !- Name
    Last Monday in May,      !- Start Date
    1,                       !- Duration {days}
    Holiday;                 !- Special Day Type

RunPeriodControl:SpecialDays,
    Labor Day,               !- Name
    1st Monday in September, !- Start Date
    1,                       !- Duration {days}
    Holiday;                 !- Special Day Type

RunPeriodControl:SpecialDays,
    Columbus Day,            !- Name
    2nd Monday in October,   !- Start Date
    1,                       !- Duration {days}
    Holiday;                 !- Special Day Type

RunPeriodControl:SpecialDays,
    Thanksgiving,            !- Name
    4th Thursday in November,!- Start Date
    1,                       !- Duration {days}
    Holiday;                 !- Special Day Type


!-   ===========  ALL OBJECTS IN CLASS: RUNPERIODCONTROL:DAYLIGHTSAVINGTIME ===========

RunPeriodControl:DaylightSavingTime,
    2nd Sunday in March,     !- Start Date
    1st Sunday in November;  !- End Date


!-   ===========  ALL OBJECTS IN CLASS: SITE:GROUNDTEMPERATURE:FCFACTORMETHOD ===========

Site:GroundTemperature:FCfactorMethod,
    13,                      !- January Ground Temperature {C}
    13,                      !- February Ground Temperature {C}
    13,                      !- March Ground Temperature {C}
    13,                      !- April Ground Temperature {C}
    13,                      !- May Ground Temperature {C}
    13,                      !- June Ground Temperature {C}
    13,                      !- July Ground Temperature {C}
    13,                      !- August Ground Temperature {C}
    13,                      !- September Ground Temperature {C}
    13,                      !- October Ground Temperature {C}
    13,                      !- November Ground Temperature {C}
    13;                      !- December Ground Temperature {C}


!-   ===========  ALL OBJECTS IN CLASS: SITE:WATERMAINSTEMPERATURE ===========

Site:WaterMainsTemperature,
    Correlation,             !- Calculation Method
    ,                        !- Temperature Schedule Name
    12.4666666666667,        !- Annual Average Outdoor Air Temperature {C}
    25.2;                    !- Maximum Difference In Monthly Average Outdoor Air Temperatures {deltaC}


!-   ===========  ALL OBJECTS IN CLASS: SCHEDULETYPELIMITS ===========

ScheduleTypeLimits,
    Any Number;              !- Name

ScheduleTypeLimits,
    Fraction,                !- Name
    0.0,                     !- Lower Limit Value
    1.0,                     !- Upper Limit Value
    Continuous;              !- Numeric Type

ScheduleTypeLimits,
    Temperature,             !- Name
    -60,                     !- Lower Limit Value
    200,                     !- Upper Limit Value
    Continuous;              !- Numeric Type

ScheduleTypeLimits,
    On/Off,                  !- Name
    0,                       !- Lower Limit Value
    1,                       !- Upper Limit Value
    Discrete;                !- Numeric Type

ScheduleTypeLimits,
    Control Type,            !- Name
    0,                       !- Lower Limit Value
    4,                       !- Upper Limit Value
    Discrete;                !- Numeric Type

ScheduleTypeLimits,
    Humidity,                !- Name
    10,                      !- Lower Limit Value
    90,                      !- Upper Limit Value
    Continuous;              !- Numeric Type

ScheduleTypeLimits,
    Number;                  !- Name


!-   ===========  ALL OBJECTS IN CLASS: SCHEDULE:COMPACT ===========

Schedule:Compact,
    Exterior_lighting_schedule_a,  !- Name
    fraction,                !- Schedule Type Limits Name
    Through:12/31,           !- Field 1
    For:AllDays,             !- Field 2
    Until: 06:00,            !- Field 3
    0,                       !- Field 4
    Until: 24:00,            !- Field 5
    1;                       !- Field 6

Schedule:Compact,
    Exterior_lighting_schedule_b,  !- Name
    fraction,                !- Schedule Type Limits Name
    Through:12/31,           !- Field 1
    For:AllDays,             !- Field 2
    Until: 06:00,            !- Field 3
    0.7,                     !- Field 4
    Until: 24:00,            !- Field 5
    1;                       !- Field 6

Schedule:Compact,
    Exterior_lighting_schedule_a_IECC2015,  !- Name
    fraction,                !- Schedule Type Limits Name
    Through:12/31,           !- Field 1
    For:Weekdays SummerDesignDay,  !- Field 2
    Until: 07:00,            !- Field 3
    0,                       !- Field 4
    Until: 22:00,            !- Field 5
    1,                       !- Field 6
    Until: 24:00,            !- Field 7
    0,                       !- Field 8
    For:Saturdays,           !- Field 9
    Until: 07:00,            !- Field 10
    0,                       !- Field 11
    Until: 18:00,            !- Field 12
    1,                       !- Field 13
    Until: 24:00,            !- Field 14
    0,                       !- Field 15
    For:AllOtherDays,        !- Field 16
    Until: 24:00,            !- Field 17
    0;                       !- Field 18

Schedule:Compact,
    Exterior_lighting_schedule_b_2016,  !- Name
    fraction,                !- Schedule Type Limits Name
    Through:12/31,           !- Field 1
    For:AllDays,             !- Field 2
    Until: 06:00,            !- Field 3
    0.5,                     !- Field 4
    Until: 24:00,            !- Field 5
    1;                       !- Field 6

Schedule:Compact,
    Exterior_lighting_schedule_c_2016,  !- Name
    fraction,                !- Schedule Type Limits Name
    Through:12/31,           !- Field 1
    For:AllDays,             !- Field 2
    Until: 06:00,            !- Field 3
    0.5,                     !- Field 4
    Until: 19:00,            !- Field 5
    1,                       !- Field 6
    Until: 24:00,            !- Field 7
    0.5;                     !- Field 8

Schedule:Compact,
    Hours_of_operation,      !- Name
    on/off,                  !- Schedule Type Limits Name
    Through: 12/31,          !- Field 1
    For: Weekdays SummerDesignDay,  !- Field 2
    Until: 06:00,            !- Field 3
    0.0,                     !- Field 4
    Until: 22:00,            !- Field 5
    1.0,                     !- Field 6
    Until: 24:00,            !- Field 7
    0.0,                     !- Field 8
    For: Saturday WinterDesignDay,  !- Field 9
    Until: 06:00,            !- Field 10
    0.0,                     !- Field 11
    Until: 18:00,            !- Field 12
    1.0,                     !- Field 13
    Until: 24:00,            !- Field 14
    0.0,                     !- Field 15
    For: Sunday Holidays AllOtherDays,  !- Field 16
    Until: 24:00,            !- Field 17
    0.0;                     !- Field 18

Schedule:Compact,
    ALWAYS_ON,               !- Name
    Fraction,                !- Schedule Type Limits Name
    Through: 12/31,          !- Field 1
    For: AllDays,            !- Field 2
    Until: 24:00,            !- Field 3
    1.0;                     !- Field 4

Schedule:Compact,
    Exterior_Lgt_ALWAYS_ON,  !- Name
    Fraction,                !- Schedule Type Limits Name
    Through: 12/31,          !- Field 1
    For: AllDays,            !- Field 2
    Until: 24:00,            !- Field 3
    1;                       !- Field 4

Schedule:Compact,
    Exterior_Lgt_189_1,      !- Name
    Fraction,                !- Schedule Type Limits Name
    Through:12/31,           !- Field 1
    For:Weekdays,            !- Field 2
    Until:  9:00,            !- Field 3
    0.5,                     !- Field 4
    Until: 24:00,            !- Field 5
    1.0,                     !- Field 6
    For:Saturday,            !- Field 7
    Until:  9:00,            !- Field 8
    0.5,                     !- Field 9
    Until: 19:00,            !- Field 10
    1.0,                     !- Field 11
    Until: 24:00,            !- Field 12
    0.5,                     !- Field 13
    FOR: Sunday Holidays AllOtherDays,  !- Field 14
    Until:  9:00,            !- Field 15
    0.5,                     !- Field 16
    Until: 18:00,            !- Field 17
    1.0,                     !- Field 18
    Until: 24:00,            !- Field 19
    0.5;                     !- Field 20

Schedule:Compact,
    ALWAYS_OFF,              !- Name
    Fraction,                !- Schedule Type Limits Name
    Through: 12/31,          !- Field 1
    For: AllDays,            !- Field 2
    Until: 24:00,            !- Field 3
    0.0;                     !- Field 4

Schedule:Compact,
    HVACOperationSchd,       !- Name
    on/off,                  !- Schedule Type Limits Name
    Through: 12/31,          !- Field 1
    For: Weekdays SummerDesignDay,  !- Field 2
    Until: 06:00,            !- Field 3
    0.0,                     !- Field 4
    Until: 22:00,            !- Field 5
    1.0,                     !- Field 6
    Until: 24:00,            !- Field 7
    0.0,                     !- Field 8
    For: Saturday WinterDesignDay,  !- Field 9
    Until: 06:00,            !- Field 10
    0.0,                     !- Field 11
    Until: 18:00,            !- Field 12
    1.0,                     !- Field 13
    Until: 24:00,            !- Field 14
    0.0,                     !- Field 15
    For: Sunday Holidays AllOtherDays,  !- Field 16
    Until: 24:00,            !- Field 17
    0.0;                     !- Field 18

Schedule:Compact,
    BLDG_LIGHT_SCH,          !- Name
    Fraction,                !- Schedule Type Limits Name
    Through: 12/31,          !- Field 1
    For: Weekdays,           !- Field 2
    Until: 5:00,             !- Field 3
    0.05,                    !- Field 4
    Until: 6:00,             !- Field 5
    0.1,                     !- Field 6
    Until: 7:00,             !- Field 7
    0.090560114,             !- Field 8
    Until: 8:00,             !- Field 9
    0.271680342,             !- Field 10
    Until: 17:00,            !- Field 11
    0.815041026,             !- Field 12
    Until: 18:00,            !- Field 13
    0.45280057,              !- Field 14
    Until: 20:00,            !- Field 15
    0.271680342,             !- Field 16
    Until: 22:00,            !- Field 17
    0.181120228,             !- Field 18
    Until: 23:00,            !- Field 19
    0.090560114,             !- Field 20
    Until: 24:00,            !- Field 21
    0.045280057,             !- Field 22
    For: SummerDesignDay,    !- Field 23
    Until: 24:00,            !- Field 24
    1,                       !- Field 25
    For: Saturday,           !- Field 26
    Until: 6:00,             !- Field 27
    0.05,                    !- Field 28
    Until: 8:00,             !- Field 29
    0.090560114,             !- Field 30
    Until: 12:00,            !- Field 31
    0.271680342,             !- Field 32
    Until: 17:00,            !- Field 33
    0.135840171,             !- Field 34
    Until: 19:00,            !- Field 35
    0.045280057,             !- Field 36
    Until: 24:00,            !- Field 37
    0.05,                    !- Field 38
    For: WinterDesignDay,    !- Field 39
    Until: 24:00,            !- Field 40
    0,                       !- Field 41
    For: Sunday Holidays AllOtherDays,  !- Field 42
    Until: 6:00,             !- Field 43
    0.05,                    !- Field 44
    Until: 18:00,            !- Field 45
    0.045280057,             !- Field 46
    Until: 24:00,            !- Field 47
    0.05;                    !- Field 48

Schedule:Compact,
    EXTERIOR_LIGHT_SCH,      !- Name
    Fraction,                !- Schedule Type Limits Name
    Through: 12/31,          !- Field 1
    For: AllDays,            !- Field 2
    Until: 07:00,            !- Field 3
    1.0,                     !- Field 4
    Until: 19:00,            !- Field 5
    0.0,                     !- Field 6
    Until: 24:00,            !- Field 7
    1.0;                     !- Field 8

Schedule:Compact,
    BLDG_EQUIP_SCH,          !- Name
    Fraction,                !- Schedule Type Limits Name
    Through: 12/31,          !- Field 1
    For: Weekdays,           !- Field 2
    Until: 06:00,            !- Field 3
    0.2947764352,            !- Field 4
    Until: 08:00,            !- Field 5
    0.3796573052,            !- Field 6
    Until: 12:00,            !- Field 7
    0.8542289367,            !- Field 8
    Until: 13:00,            !- Field 9
    0.7593146104,            !- Field 10
    Until: 17:00,            !- Field 11
    0.8542289367,            !- Field 12
    Until: 18:00,            !- Field 13
    0.4745716315,            !- Field 14
    Until: 24:00,            !- Field 15
    0.3796573052,            !- Field 16
    For: SummerDesignDay,    !- Field 17
    Until: 24:00,            !- Field 18
    1.0,                     !- Field 19
    For: Saturday,           !- Field 20
    Until: 06:00,            !- Field 21
    0.2210823264,            !- Field 22
    Until: 08:00,            !- Field 23
    0.3796573052,            !- Field 24
    Until: 12:00,            !- Field 25
    0.4745716315,            !- Field 26
    Until: 17:00,            !- Field 27
    0.33220014205,           !- Field 28
    Until: 19:00,            !- Field 29
    0.2847429789,            !- Field 30
    Until: 24:00,            !- Field 31
    0.2210823264,            !- Field 32
    For: WinterDesignDay,    !- Field 33
    Until: 24:00,            !- Field 34
    0.0,                     !- Field 35
    For: Sunday Holidays AllOtherDays,  !- Field 36
    Until: 06:00,            !- Field 37
    0.2210823264,            !- Field 38
    Until: 18:00,            !- Field 39
    0.2847429789,            !- Field 40
    Until: 24:00,            !- Field 41
    0.2210823264;            !- Field 42

Schedule:Compact,
    BLDG_OCC_SCH,            !- Name
    Fraction,                !- Schedule Type Limits Name
    Through: 12/31,          !- Field 1
    For: Weekdays,           !- Field 2
    Until: 06:00,            !- Field 3
    0.0,                     !- Field 4
    Until: 07:00,            !- Field 5
    0.1,                     !- Field 6
    Until: 08:00,            !- Field 7
    0.2,                     !- Field 8
    Until: 12:00,            !- Field 9
    0.95,                    !- Field 10
    Until: 13:00,            !- Field 11
    0.5,                     !- Field 12
    Until: 17:00,            !- Field 13
    0.95,                    !- Field 14
    Until: 18:00,            !- Field 15
    0.3,                     !- Field 16
    Until: 22:00,            !- Field 17
    0.1,                     !- Field 18
    Until: 24:00,            !- Field 19
    0.05,                    !- Field 20
    For: SummerDesignDay,    !- Field 21
    Until: 06:00,            !- Field 22
    0.000000001,             !- Field 23
    Until: 22:00,            !- Field 24
    1.0,                     !- Field 25
    Until: 24:00,            !- Field 26
    0.05,                    !- Field 27
    For: Saturday,           !- Field 28
    Until: 06:00,            !- Field 29
    0.0,                     !- Field 30
    Until: 08:00,            !- Field 31
    0.1,                     !- Field 32
    Until: 12:00,            !- Field 33
    0.3,                     !- Field 34
    Until: 17:00,            !- Field 35
    0.1,                     !- Field 36
    Until: 19:00,            !- Field 37
    0.05,                    !- Field 38
    Until: 24:00,            !- Field 39
    0.0,                     !- Field 40
    For: WinterDesignDay,    !- Field 41
    Until: 24:00,            !- Field 42
    0.0,                     !- Field 43
    For: Sunday Holidays AllOtherDays,  !- Field 44
    Until: 06:00,            !- Field 45
    0.0,                     !- Field 46
    Until: 18:00,            !- Field 47
    0.05,                    !- Field 48
    Until: 24:00,            !- Field 49
    0.0;                     !- Field 50

Schedule:Compact,
    BLDG_OCC_SCH_w_SB,       !- Name