!-Generator IDFEditor 1.50
!-Option SortedOrder

!-NOTE: All comments with '!-' are ignored by the IDFEditor and are generated automatically.
!-      Use '!' comments if they need to be retained when using the IDFEditor.


!-   ===========  ALL OBJECTS IN CLASS: VERSION ===========

Version,
    9.2;                     !- Version Identifier


!-   ===========  ALL OBJECTS IN CLASS: SIMULATIONCONTROL ===========

SimulationControl,
    Yes,                     !- Do Zone Sizing Calculation
    Yes,                     !- Do System Sizing Calculation
    Yes,                     !- Do Plant Sizing Calculation
    No,                      !- Run Simulation for Sizing Periods
    YES;                     !- Run Simulation for Weather File Run Periods


!-   ===========  ALL OBJECTS IN CLASS: BUILDING ===========

Building,
    SchoolSecondary,         !- Name
    0,                       !- North Axis {deg}
    City,                    !- Terrain
    0.04,                    !- Loads Convergence Tolerance Value
    0.2,                     !- Temperature Convergence Tolerance Value {deltaC}
    FullInteriorAndExterior, !- Solar Distribution
    25,                      !- Maximum Number of Warmup Days
    6;                       !- Minimum Number of Warmup Days


!-   ===========  ALL OBJECTS IN CLASS: SHADOWCALCULATION ===========

ShadowCalculation,
    AverageOverDaysInFrequency,  !- Calculation Method
    30,                      !- Calculation Frequency
    15000;                   !- Maximum Figures in Shadow Overlap Calculations


!-   ===========  ALL OBJECTS IN CLASS: SURFACECONVECTIONALGORITHM:INSIDE ===========

SurfaceConvectionAlgorithm:Inside,
    TARP;                    !- Algorithm


!-   ===========  ALL OBJECTS IN CLASS: SURFACECONVECTIONALGORITHM:OUTSIDE ===========

SurfaceConvectionAlgorithm:Outside,
    TARP;                    !- Algorithm


!-   ===========  ALL OBJECTS IN CLASS: HEATBALANCEALGORITHM ===========

HeatBalanceAlgorithm,
    ConductionTransferFunction,  !- Algorithm
    200;                     !- Surface Temperature Upper Limit {C}


!-   ===========  ALL OBJECTS IN CLASS: TIMESTEP ===========

Timestep,
    6;                       !- Number of Timesteps per Hour


!-   ===========  ALL OBJECTS IN CLASS: CONVERGENCELIMITS ===========

ConvergenceLimits,
    1,                       !- Minimum System Timestep {minutes}
    20;                      !- Maximum HVAC Iterations


!-   ===========  ALL OBJECTS IN CLASS: SITE:LOCATION ===========

Site:Location,
    New.York-John.F.Kennedy.Intl.AP_NY_USA WMO=744860,  !- Name
    40.66,                   !- Latitude {deg}
    -73.8,                   !- Longitude {deg}
    -5,                      !- Time Zone {hr}
    7;                       !- Elevation {m}


!-   ===========  ALL OBJECTS IN CLASS: SIZINGPERIOD:DESIGNDAY ===========

SizingPeriod:DesignDay,
    New.York-John.F.Kennedy.Intl.AP_NY_USA Ann Htg 99.6% Condns DB,  !- Name
    1,                       !- Month
    21,                      !- Day of Month
    WinterDesignDay,         !- Day Type
    -10.7,                   !- Maximum Dry-Bulb Temperature {C}
    0,                       !- Daily Dry-Bulb Temperature Range {deltaC}
    DefaultMultipliers,      !- Dry-Bulb Temperature Range Modifier Type
    ,                        !- Dry-Bulb Temperature Range Modifier Day Schedule Name
    Wetbulb,                 !- Humidity Condition Type
    -10.7,                   !- Wetbulb or DewPoint at Maximum Dry-Bulb {C}
    ,                        !- Humidity Condition Day Schedule Name
    ,                        !- Humidity Ratio at Maximum Dry-Bulb {kgWater/kgDryAir}
    ,                        !- Enthalpy at Maximum Dry-Bulb {J/kg}
    ,                        !- Daily Wet-Bulb Temperature Range {deltaC}
    101241,                  !- Barometric Pressure {Pa}
    7.5,                     !- Wind Speed {m/s}
    320,                     !- Wind Direction {deg}
    No,                      !- Rain Indicator
    No,                      !- Snow Indicator
    No,                      !- Daylight Saving Time Indicator
    ASHRAEClearSky,          !- Solar Model Indicator
    ,                        !- Beam Solar Day Schedule Name
    ,                        !- Diffuse Solar Day Schedule Name
    ,                        !- ASHRAE Clear Sky Optical Depth for Beam Irradiance (taub) {dimensionless}
    ,                        !- ASHRAE Clear Sky Optical Depth for Diffuse Irradiance (taud) {dimensionless}
    0;                       !- Sky Clearness

SizingPeriod:DesignDay,
    New.York-John.F.Kennedy.Intl.AP_NY_USA Ann Clg .4% Condns DB=>MWB,  !- Name
    7,                       !- Month
    21,                      !- Day of Month
    SummerDesignDay,         !- Day Type
    32.1,                    !- Maximum Dry-Bulb Temperature {C}
    7.4,                     !- Daily Dry-Bulb Temperature Range {deltaC}
    DefaultMultipliers,      !- Dry-Bulb Temperature Range Modifier Type
    ,                        !- Dry-Bulb Temperature Range Modifier Day Schedule Name
    Wetbulb,                 !- Humidity Condition Type
    23.1,                    !- Wetbulb or DewPoint at Maximum Dry-Bulb {C}
    ,                        !- Humidity Condition Day Schedule Name
    ,                        !- Humidity Ratio at Maximum Dry-Bulb {kgWater/kgDryAir}
    ,                        !- Enthalpy at Maximum Dry-Bulb {J/kg}
    ,                        !- Daily Wet-Bulb Temperature Range {deltaC}
    101241,                  !- Barometric Pressure {Pa}
    5.6,                     !- Wind Speed {m/s}
    230,                     !- Wind Direction {deg}
    No,                      !- Rain Indicator
    No,                      !- Snow Indicator
    No,                      !- Daylight Saving Time Indicator
    ASHRAETau,               !- Solar Model Indicator
    ,                        !- Beam Solar Day Schedule Name
    ,                        !- Diffuse Solar Day Schedule Name
    0.541,                   !- ASHRAE Clear Sky Optical Depth for Beam Irradiance (taub) {dimensionless}
    1.8;                     !- ASHRAE Clear Sky Optical Depth for Diffuse Irradiance (taud) {dimensionless}


!-   ===========  ALL OBJECTS IN CLASS: RUNPERIOD ===========

RunPeriod,
    RUNPERIOD 1,             !- Name
    1,                       !- Begin Month
    1,                       !- Begin Day of Month
    ,                        !- Begin Year
    12,                      !- End Month
    31,                      !- End Day of Month
    ,                        !- End Year
    Sunday,                  !- Day of Week for Start Day
    No,                      !- Use Weather File Holidays and Special Days
    No,                      !- Use Weather File Daylight Saving Period
    No,                      !- Apply Weekend Holiday Rule
    Yes,                     !- Use Weather File Rain Indicators
    Yes;                     !- Use Weather File Snow Indicators


!-   ===========  ALL OBJECTS IN CLASS: RUNPERIODCONTROL:SPECIALDAYS ===========

RunPeriodControl:SpecialDays,
    New Years Day,           !- Name
    January 1,               !- Start Date
    1,                       !- Duration {days}
    Holiday;                 !- Special Day Type

RunPeriodControl:SpecialDays,
    Veterans Day,            !- Name
    November 11,             !- Start Date
    1,                       !- Duration {days}
    Holiday;                 !- Special Day Type

RunPeriodControl:SpecialDays,
    Christmas,               !- Name
    December 25,             !- Start Date
    1,                       !- Duration {days}
    Holiday;                 !- Special Day Type

RunPeriodControl:SpecialDays,
    Independence Day,        !- Name
    July 4,                  !- Start Date
    1,                       !- Duration {days}
    Holiday;                 !- Special Day Type

RunPeriodControl:SpecialDays,
    MLK Day,                 !- Name
    3rd Monday in January,   !- Start Date
    1,                       !- Duration {days}
    Holiday;                 !- Special Day Type

RunPeriodControl:SpecialDays,
    Presidents Day,          !- Name
    3rd Monday in February,  !- Start Date
    1,                       !- Duration {days}
    Holiday;                 !- Special Day Type

RunPeriodControl:SpecialDays,
    Memorial Day,            !- Name
    Last Monday in May,      !- Start Date
    1,                       !- Duration {days}
    Holiday;                 !- Special Day Type

RunPeriodControl:SpecialDays,
    Labor Day,               !- Name
    1st Monday in September, !- Start Date
    1,                       !- Duration {days}
    Holiday;                 !- Special Day Type

RunPeriodControl:SpecialDays,
    Columbus Day,            !- Name
    2nd Monday in October,   !- Start Date
    1,                       !- Duration {days}
    Holiday;                 !- Special Day Type

RunPeriodControl:SpecialDays,
    Thanksgiving,            !- Name
    4th Thursday in November,!- Start Date
    1,                       !- Duration {days}
    Holiday;                 !- Special Day Type


!-   ===========  ALL OBJECTS IN CLASS: RUNPERIODCONTROL:DAYLIGHTSAVINGTIME ===========

RunPeriodControl:DaylightSavingTime,
    2nd Sunday in March,     !- Start Date
    1st Sunday in November;  !- End Date


!-   ===========  ALL OBJECTS IN CLASS: SITE:GROUNDTEMPERATURE:FCFACTORMETHOD ===========

Site:GroundTemperature:FCfactorMethod,
    14,                      !- January Ground Temperature {C}
    7.3,                     !- February Ground Temperature {C}
    3.3,                     !- March Ground Temperature {C}
    1.2,                     !- April Ground Temperature {C}
    -0.2,                    !- May Ground Temperature {C}
    5.6,                     !- June Ground Temperature {C}
    10.9,                    !- July Ground Temperature {C}
    16.1,                    !- August Ground Temperature {C}
    21.7,                    !- September Ground Temperature {C}
    25,                      !- October Ground Temperature {C}
    24.8,                    !- November Ground Temperature {C}
    19.9;                    !- December Ground Temperature {C}


!-   ===========  ALL OBJECTS IN CLASS: SITE:WATERMAINSTEMPERATURE ===========

Site:WaterMainsTemperature,
    CORRELATION,             !- Calculation Method
    ,                        !- Temperature Schedule Name
    12.4666666666667,        !- Annual Average Outdoor Air Temperature {C}
    25.2;                    !- Maximum Difference In Monthly Average Outdoor Air Temperatures {deltaC}


!-   ===========  ALL OBJECTS IN CLASS: SCHEDULETYPELIMITS ===========

ScheduleTypeLimits,
    Any Number;              !- Name

ScheduleTypeLimits,
    Fraction,                !- Name
    0,                       !- Lower Limit Value
    1,                       !- Upper Limit Value
    CONTINUOUS;              !- Numeric Type

ScheduleTypeLimits,
    Temperature,             !- Name
    -60,                     !- Lower Limit Value
    200,                     !- Upper Limit Value
    CONTINUOUS;              !- Numeric Type

ScheduleTypeLimits,
    On/Off,                  !- Name
    0,                       !- Lower Limit Value
    1,                       !- Upper Limit Value
    DISCRETE;                !- Numeric Type

ScheduleTypeLimits,
    Control Type,            !- Name
    0,                       !- Lower Limit Value
    4,                       !- Upper Limit Value
    DISCRETE;                !- Numeric Type

ScheduleTypeLimits,
    Humidity,                !- Name
    10,                      !- Lower Limit Value
    90,                      !- Upper Limit Value
    CONTINUOUS;              !- Numeric Type

ScheduleTypeLimits,
    Number;                  !- Name


!-   ===========  ALL OBJECTS IN CLASS: SCHEDULE:COMPACT ===========

Schedule:Compact,
    BLDG_LIGHT_BATH_SCH,     !- Name
    Fraction,                !- Schedule Type Limits Name
    Through: 6/30,           !- Field 1
    For: Weekdays,           !- Field 2
    Until: 7:00,             !- Field 3
    0.1773,                  !- Field 4
    Until: 8:00,             !- Field 5
    0.9,                     !- Field 6
    Until: 21:00,            !- Field 7
    0.594,                   !- Field 8
    Until: 24:00,            !- Field 9
    0.1773,                  !- Field 10
    For: SummerDesignDay,    !- Field 11
    Until: 24:00,            !- Field 12
    1,                       !- Field 13
    For: WinterDesignDay,    !- Field 14
    Until: 24:00,            !- Field 15
    0,                       !- Field 16
    For: WeekEnds Holidays AllOtherDays,  !- Field 17
    Until: 24:00,            !- Field 18
    0.1773,                  !- Field 19
    Through: 9/1,            !- Field 20
    For: Weekdays,           !- Field 21
    Until: 8:00,             !- Field 22
    0.1773,                  !- Field 23
    Until: 20:00,            !- Field 24
    0.33,                    !- Field 25
    Until: 21:00,            !- Field 26
    0.117018,                !- Field 27
    Until: 24:00,            !- Field 28
    0.1773,                  !- Field 29
    For: SummerDesignDay,    !- Field 30
    Until: 24:00,            !- Field 31
    1,                       !- Field 32
    For: WinterDesignDay,    !- Field 33
    Until: 24:00,            !- Field 34
    0,                       !- Field 35
    For: WeekEnds Holidays AllOtherDays,  !- Field 36
    Until: 24:00,            !- Field 37
    0.1773,                  !- Field 38
    Through: 12/31,          !- Field 39
    For: Weekdays,           !- Field 40
    Until: 7:00,             !- Field 41
    0.1773,                  !- Field 42
    Until: 8:00,             !- Field 43
    0.9,                     !- Field 44
    Until: 21:00,            !- Field 45
    0.594,                   !- Field 46
    Until: 24:00,            !- Field 47
    0.1773,                  !- Field 48
    For: SummerDesignDay,    !- Field 49
    Until: 24:00,            !- Field 50
    1,                       !- Field 51
    For: WinterDesignDay,    !- Field 52
    Until: 24:00,            !- Field 53
    0,                       !- Field 54
    For: WeekEnds Holidays AllOtherDays,  !- Field 55
    Until: 24:00,            !- Field 56
    0.1773;                  !- Field 57

Schedule:Compact,
    BLDG_LIGHT_CLASSROOM_SCH,!- Name
    Fraction,                !- Schedule Type Limits Name
    Through: 6/30,           !- Field 1
    For: Weekdays,           !- Field 2
    Until: 7:00,             !- Field 3
    0.1773,                  !- Field 4
    Until: 8:00,             !- Field 5
    0.9,                     !- Field 6
    Until: 21:00,            !- Field 7
    0.5982912,               !- Field 8
    Until: 24:00,            !- Field 9
    0.1773,                  !- Field 10
    For: SummerDesignDay,    !- Field 11
    Until: 24:00,            !- Field 12
    1,                       !- Field 13
    For: WinterDesignDay,    !- Field 14
    Until: 24:00,            !- Field 15
    0,                       !- Field 16
    For: WeekEnds Holidays AllOtherDays,  !- Field 17
    Until: 24:00,            !- Field 18
    0.1773,                  !- Field 19
    Through: 9/1,            !- Field 20
    For: Weekdays,           !- Field 21
    Until: 8:00,             !- Field 22
    0.1773,                  !- Field 23
    Until: 20:00,            !- Field 24
    0.332384,                !- Field 25
    Until: 21:00,            !- Field 26
    0.1178633664,            !- Field 27
    Until: 24:00,            !- Field 28
    0.1773,                  !- Field 29
    For: SummerDesignDay,    !- Field 30
    Until: 24:00,            !- Field 31
    1,                       !- Field 32
    For: WinterDesignDay,    !- Field 33
    Until: 24:00,            !- Field 34
    0,                       !- Field 35
    For: WeekEnds Holidays AllOtherDays,  !- Field 36
    Until: 24:00,            !- Field 37
    0.1773,                  !- Field 38
    Through: 12/31,          !- Field 39
    For: Weekdays,           !- Field 40
    Until: 7:00,             !- Field 41
    0.1773,                  !- Field 42
    Until: 8:00,             !- Field 43
    0.9,                     !- Field 44
    Until: 21:00,            !- Field 45
    0.5982912,               !- Field 46
    Until: 24:00,            !- Field 47
    0.1773,                  !- Field 48
    For: SummerDesignDay,    !- Field 49
    Until: 24:00,            !- Field 50
    1,                       !- Field 51
    For: WinterDesignDay,    !- Field 52
    Until: 24:00,            !- Field 53
    0,                       !- Field 54
    For: WeekEnds Holidays AllOtherDays,  !- Field 55
    Until: 24:00,            !- Field 56
    0.1773;                  !- Field 57

Schedule:Compact,
    BLDG_LIGHT_CORRIDOR_SCH, !- Name
    Fraction,                !- Schedule Type Limits Name
    Through: 6/30,           !- Field 1
    For: Weekdays,           !- Field 2
    Until: 7:00,             !- Field 3
    0.1773,                  !- Field 4
    Until: 8:00,             !- Field 5
    0.9,                     !- Field 6
    Until: 21:00,            !- Field 7
    0.551772,                !- Field 8
    Until: 24:00,            !- Field 9
    0.1773,                  !- Field 10
    For: SummerDesignDay,    !- Field 11
    Until: 24:00,            !- Field 12
    1,                       !- Field 13
    For: WinterDesignDay,    !- Field 14
    Until: 24:00,            !- Field 15
    0,                       !- Field 16
    For: WeekEnds Holidays AllOtherDays,  !- Field 17
    Until: 24:00,            !- Field 18
    0.1773,                  !- Field 19
    Through: 9/1,            !- Field 20
    For: Weekdays,           !- Field 21
    Until: 8:00,             !- Field 22
    0.1773,                  !- Field 23
    Until: 20:00,            !- Field 24
    0.30654,                 !- Field 25
    Until: 21:00,            !- Field 26
    0.108699084,             !- Field 27
    Until: 24:00,            !- Field 28
    0.1773,                  !- Field 29
    For: SummerDesignDay,    !- Field 30
    Until: 24:00,            !- Field 31
    1,                       !- Field 32
    For: WinterDesignDay,    !- Field 33
    Until: 24:00,            !- Field 34
    0,                       !- Field 35
    For: WeekEnds Holidays AllOtherDays,  !- Field 36
    Until: 24:00,            !- Field 37
    0.1773,                  !- Field 38
    Through: 12/31,          !- Field 39
    For: Weekdays,           !- Field 40
    Until: 7:00,             !- Field 41
    0.1773,                  !- Field 42
    Until: 8:00,             !- Field 43
    0.9,                     !- Field 44
    Until: 21:00,            !- Field 45
    0.551772,                !- Field 46
    Until: 24:00,            !- Field 47
    0.1773,                  !- Field 48
    For: SummerDesignDay,    !- Field 49
    Until: 24:00,            !- Field 50
    1,                       !- Field 51
    For: WinterDesignDay,    !- Field 52
    Until: 24:00,            !- Field 53
    0,                       !- Field 54
    For: WeekEnds Holidays AllOtherDays,  !- Field 55
    Until: 24:00,            !- Field 56
    0.1773;                  !- Field 57

Schedule:Compact,
    BLDG_LIGHT_GYM_SCH,      !- Name
    Fraction,                !- Schedule Type Limits Name
    Through: 6/30,           !- Field 1
    For: Weekdays,           !- Field 2
    Until: 7:00,             !- Field 3
    0.1773,                  !- Field 4
    Until: 8:00,             !- Field 5
    0.9,                     !- Field 6
    Until: 21:00,            !- Field 7
    0.88182,                 !- Field 8
    Until: 24:00,            !- Field 9
    0.1773,                  !- Field 10
    For: SummerDesignDay,    !- Field 11
    Until: 24:00,            !- Field 12
    1,                       !- Field 13
    For: WinterDesignDay,    !- Field 14
    Until: 24:00,            !- Field 15
    0,                       !- Field 16
    For: WeekEnds Holidays AllOtherDays,  !- Field 17
    Until: 24:00,            !- Field 18
    0.1773,                  !- Field 19
    Through: 9/1,            !- Field 20
    For: Weekdays,           !- Field 21
    Until: 8:00,             !- Field 22
    0.1773,                  !- Field 23
    Until: 20:00,            !- Field 24
    0.4899,                  !- Field 25
    Until: 21:00,            !- Field 26
    0.17371854,              !- Field 27
    Until: 24:00,            !- Field 28
    0.1773,                  !- Field 29
    For: SummerDesignDay,    !- Field 30
    Until: 24:00,            !- Field 31
    1,                       !- Field 32
    For: WinterDesignDay,    !- Field 33
    Until: 24:00,            !- Field 34
    0,                       !- Field 35
    For: WeekEnds Holidays AllOtherDays,  !- Field 36
    Until: 24:00,            !- Field 37
    0.1773,                  !- Field 38
    Through: 12/31,          !- Field 39
    For: Weekdays,           !- Field 40
    Until: 7:00,             !- Field 41
    0.1773,                  !- Field 42
    Until: 8:00,             !- Field 43
    0.9,                     !- Field 44
    Until: 21:00,            !- Field 45
    0.88182,                 !- Field 46
    Until: 24:00,            !- Field 47
    0.1773,                  !- Field 48
    For: SummerDesignDay,    !- Field 49
    Until: 24:00,            !- Field 50
    1,                       !- Field 51
    For: WinterDesignDay,    !- Field 52
    Until: 24:00,            !- Field 53
    0,                       !- Field 54
    For: WeekEnds Holidays AllOtherDays,  !- Field 55
    Until: 24:00,            !- Field 56
    0.1773;                  !- Field 57

Schedule:Compact,
    BLDG_LIGHT_LIBRARY_SCH,  !- Name
    Fraction,                !- Schedule Type Limits Name
    Through: 6/30,           !- Field 1
    For: Weekdays,           !- Field 2
    Until: 7:00,             !- Field 3
    0.1773,                  !- Field 4
    Until: 8:00,             !- Field 5
    0.9,                     !- Field 6
    Until: 21:00,            !- Field 7
    0.8325,                  !- Field 8
    Until: 24:00,            !- Field 9
    0.1773,                  !- Field 10
    For: SummerDesignDay,    !- Field 11
    Until: 24:00,            !- Field 12
    1,                       !- Field 13
    For: WinterDesignDay,    !- Field 14
    Until: 24:00,            !- Field 15
    0,                       !- Field 16
    For: WeekEnds Holidays AllOtherDays,  !- Field 17
    Until: 24:00,            !- Field 18
    0.1773,                  !- Field 19
    Through: 9/1,            !- Field 20
    For: Weekdays,           !- Field 21
    Until: 8:00,             !- Field 22
    0.1773,                  !- Field 23
    Until: 20:00,            !- Field 24
    0.4625,                  !- Field 25
    Until: 21:00,            !- Field 26
    0.1640025,               !- Field 27
    Until: 24:00,            !- Field 28
    0.1773,                  !- Field 29
    For: SummerDesignDay,    !- Field 30
    Until: 24:00,            !- Field 31
    1,                       !- Field 32
    For: WinterDesignDay,    !- Field 33
    Until: 24:00,            !- Field 34
    0,                       !- Field 35
    For: WeekEnds Holidays AllOtherDays,  !- Field 36
    Until: 24:00,            !- Field 37
    0.1773,                  !- Field 38
    Through: 12/31,          !- Field 39
    For: Weekdays,           !- Field 40
    Until: 7:00,             !- Field 41
    0.1773,                  !- Field 42
    Until: 8:00,             !- Field 43
    0.9,                     !- Field 44
    Until: 21:00,            !- Field 45
    0.8325,                  !- Field 46
    Until: 24:00,            !- Field 47
    0.1773,                  !- Field 48
    For: SummerDesignDay,    !- Field 49
    Until: 24:00,            !- Field 50
    1,                       !- Field 51
    For: WinterDesignDay,    !- Field 52
    Until: 24:00,            !- Field 53
    0,                       !- Field 54
    For: WeekEnds Holidays AllOtherDays,  !- Field 55
    Until: 24:00,            !- Field 56
    0.1773;                  !- Field 57

Schedule:Compact,
    BLDG_LIGHT_LOBBYFLR1_SCH,!- Name
    Fraction,                !- Schedule Type Limits Name
    Through: 6/30,           !- Field 1
    For: Weekdays,           !- Field 2
    Until: 7:00,             !- Field 3
    0.1773,                  !- Field 4
    Until: 8:00,             !- Field 5
    0.9,                     !- Field 6
    Until: 21:00,            !- Field 7
    0.855,                   !- Field 8
    Until: 24:00,            !- Field 9
    0.1773,                  !- Field 10
    For: SummerDesignDay,    !- Field 11
    Until: 24:00,            !- Field 12
    1,                       !- Field 13
    For: WinterDesignDay,    !- Field 14
    Until: 24:00,            !- Field 15
    0,                       !- Field 16
    For: WeekEnds Holidays AllOtherDays,  !- Field 17
    Until: 24:00,            !- Field 18
    0.1773,                  !- Field 19
    Through: 9/1,            !- Field 20
    For: Weekdays,           !- Field 21
    Until: 8:00,             !- Field 22
    0.1773,                  !- Field 23
    Until: 20:00,            !- Field 24
    0.475,                   !- Field 25
    Until: 21:00,            !- Field 26
    0.168435,                !- Field 27
    Until: 24:00,            !- Field 28
    0.1773,                  !- Field 29
    For: SummerDesignDay,    !- Field 30
    Until: 24:00,            !- Field 31
    1,                       !- Field 32
    For: WinterDesignDay,    !- Field 33
    Until: 24:00,            !- Field 34
    0,                       !- Field 35
    For: WeekEnds Holidays AllOtherDays,  !- Field 36
    Until: 24:00,            !- Field 37
    0.1773,                  !- Field 38
    Through: 12/31,          !- Field 39
    For: Weekdays,           !- Field 40
    Until: 7:00,             !- Field 41
    0.1773,                  !- Field 42
    Until: 8:00,             !- Field 43
    0.9,                     !- Field 44
    Until: 21:00,            !- Field 45
    0.855,                   !- Field 46
    Until: 24:00,            !- Field 47
    0.1773,                  !- Field 48
    For: SummerDesignDay,    !- Field 49
    Until: 24:00,            !- Field 50
    1,                       !- Field 51
    For: WinterDesignDay,    !- Field 52
    Until: 24:00,            !- Field 53
    0,                       !- Field 54
    For: WeekEnds Holidays AllOtherDays,  !- Field 55
    Until: 24:00,            !- Field 56
    0.1773;                  !- Field 57

Schedule:Compact,
    BLDG_LIGHT_MECHANIC_SCH, !- Name
    Fraction,                !- Schedule Type Limits Name
    Through: 6/30,           !- Field 1
    For: Weekdays,           !- Field 2
    Until: 7:00,             !- Field 3
    0.1773,                  !- Field 4
    Until: 21:00,            !- Field 5
    0.9,                     !- Field 6
    Until: 24:00,            !- Field 7
    0.1773,                  !- Field 8
    For: SummerDesignDay,    !- Field 9
    Until: 24:00,            !- Field 10
    1,                       !- Field 11
    For: WinterDesignDay,    !- Field 12
    Until: 24:00,            !- Field 13
    0,                       !- Field 14
    For: WeekEnds Holidays AllOtherDays,  !- Field 15
    Until: 24:00,            !- Field 16
    0.1773,                  !- Field 17
    Through: 9/1,            !- Field 18
    For: Weekdays,           !- Field 19
    Until: 8:00,             !- Field 20
    0.1773,                  !- Field 21
    Until: 20:00,            !- Field 22
    0.5,                     !- Field 23
    Until: 24:00,            !- Field 24
    0.1773,                  !- Field 25
    For: SummerDesignDay,    !- Field 26
    Until: 24:00,            !- Field 27
    1,                       !- Field 28
    For: WinterDesignDay,    !- Field 29
    Until: 24:00,            !- Field 30
    0,                       !- Field 31
    For: WeekEnds Holidays AllOtherDays,  !- Field 32
    Until: 24:00,            !- Field 33
    0.1773,                  !- Field 34
    Through: 12/31,          !- Field 35
    For: Weekdays,           !- Field 36
    Until: 7:00,             !- Field 37
    0.1773,                  !- Field 38
    Until: 21:00,            !- Field 39
    0.9,                     !- Field 40
    Until: 24:00,            !- Field 41
    0.1773,                  !- Field 42
    For: SummerDesignDay,    !- Field 43
    Until: 24:00,            !- Field 44
    1,                       !- Field 45
    For: WinterDesignDay,    !- Field 46
    Until: 24:00,            !- Field 47
    0,                       !- Field 48
    For: WeekEnds Holidays AllOtherDays,  !- Field 49
    Until: 24:00,            !- Field 50
    0.1773;                  !- Field 51

Schedule:Compact,
    BLDG_LIGHT_MISC_SCH,     !- Name
    Fraction,                !- Schedule Type Limits Name
    Through: 6/30,           !- Field 1
    For: Weekdays,           !- Field 2