!-Generator IDFEditor 1.50
!-Option SortedOrder

!-NOTE: All comments with '!-' are ignored by the IDFEditor and are generated automatically.
!-      Use '!' comments if they need to be retained when using the IDFEditor.


!-   ===========  ALL OBJECTS IN CLASS: VERSION ===========

Version,
    9.2;                     !- Version Identifier


!-   ===========  ALL OBJECTS IN CLASS: SIMULATIONCONTROL ===========

SimulationControl,
    Yes,                     !- Do Zone Sizing Calculation
    Yes,                     !- Do System Sizing Calculation
    Yes,                     !- Do Plant Sizing Calculation
    No,                      !- Run Simulation for Sizing Periods
    YES;                     !- Run Simulation for Weather File Run Periods


!-   ===========  ALL OBJECTS IN CLASS: BUILDING ===========

Building,
    HotelLarge,              !- Name
    0,                       !- North Axis {deg}
    City,                    !- Terrain
    0.04,                    !- Loads Convergence Tolerance Value
    0.2,                     !- Temperature Convergence Tolerance Value {deltaC}
    FullInteriorAndExterior, !- Solar Distribution
    25,                      !- Maximum Number of Warmup Days
    6;                       !- Minimum Number of Warmup Days


!-   ===========  ALL OBJECTS IN CLASS: SHADOWCALCULATION ===========

ShadowCalculation,
    AverageOverDaysInFrequency,  !- Calculation Method
    7,                       !- Calculation Frequency
    15000;                   !- Maximum Figures in Shadow Overlap Calculations


!-   ===========  ALL OBJECTS IN CLASS: SURFACECONVECTIONALGORITHM:INSIDE ===========

SurfaceConvectionAlgorithm:Inside,
    TARP;                    !- Algorithm


!-   ===========  ALL OBJECTS IN CLASS: SURFACECONVECTIONALGORITHM:OUTSIDE ===========

SurfaceConvectionAlgorithm:Outside,
    DOE-2;                   !- Algorithm


!-   ===========  ALL OBJECTS IN CLASS: HEATBALANCEALGORITHM ===========

HeatBalanceAlgorithm,
    ConductionTransferFunction,  !- Algorithm
    200;                     !- Surface Temperature Upper Limit {C}


!-   ===========  ALL OBJECTS IN CLASS: TIMESTEP ===========

Timestep,
    6;                       !- Number of Timesteps per Hour


!-   ===========  ALL OBJECTS IN CLASS: CONVERGENCELIMITS ===========

ConvergenceLimits,
    1,                       !- Minimum System Timestep {minutes}
    20;                      !- Maximum HVAC Iterations


!-   ===========  ALL OBJECTS IN CLASS: SITE:LOCATION ===========

Site:Location,
    New.York-John.F.Kennedy.Intl.AP_NY_USA WMO=744860,  !- Name
    40.66,                   !- Latitude {deg}
    -73.8,                   !- Longitude {deg}
    -5,                      !- Time Zone {hr}
    7;                       !- Elevation {m}


!-   ===========  ALL OBJECTS IN CLASS: SIZINGPERIOD:DESIGNDAY ===========

SizingPeriod:DesignDay,
    New.York-John.F.Kennedy.Intl.AP_NY_USA Ann Htg 99.6% Condns DB,  !- Name
    1,                       !- Month
    21,                      !- Day of Month
    WinterDesignDay,         !- Day Type
    -10.7,                   !- Maximum Dry-Bulb Temperature {C}
    0,                       !- Daily Dry-Bulb Temperature Range {deltaC}
    DefaultMultipliers,      !- Dry-Bulb Temperature Range Modifier Type
    ,                        !- Dry-Bulb Temperature Range Modifier Day Schedule Name
    Wetbulb,                 !- Humidity Condition Type
    -10.7,                   !- Wetbulb or DewPoint at Maximum Dry-Bulb {C}
    ,                        !- Humidity Condition Day Schedule Name
    ,                        !- Humidity Ratio at Maximum Dry-Bulb {kgWater/kgDryAir}
    ,                        !- Enthalpy at Maximum Dry-Bulb {J/kg}
    ,                        !- Daily Wet-Bulb Temperature Range {deltaC}
    101241,                  !- Barometric Pressure {Pa}
    7.5,                     !- Wind Speed {m/s}
    320,                     !- Wind Direction {deg}
    No,                      !- Rain Indicator
    No,                      !- Snow Indicator
    No,                      !- Daylight Saving Time Indicator
    ASHRAEClearSky,          !- Solar Model Indicator
    ,                        !- Beam Solar Day Schedule Name
    ,                        !- Diffuse Solar Day Schedule Name
    ,                        !- ASHRAE Clear Sky Optical Depth for Beam Irradiance (taub) {dimensionless}
    ,                        !- ASHRAE Clear Sky Optical Depth for Diffuse Irradiance (taud) {dimensionless}
    0;                       !- Sky Clearness

SizingPeriod:DesignDay,
    New.York-John.F.Kennedy.Intl.AP_NY_USA Ann Clg .4% Condns DB=>MWB,  !- Name
    7,                       !- Month
    21,                      !- Day of Month
    SummerDesignDay,         !- Day Type
    32.1,                    !- Maximum Dry-Bulb Temperature {C}
    7.4,                     !- Daily Dry-Bulb Temperature Range {deltaC}
    DefaultMultipliers,      !- Dry-Bulb Temperature Range Modifier Type
    ,                        !- Dry-Bulb Temperature Range Modifier Day Schedule Name
    Wetbulb,                 !- Humidity Condition Type
    23.1,                    !- Wetbulb or DewPoint at Maximum Dry-Bulb {C}
    ,                        !- Humidity Condition Day Schedule Name
    ,                        !- Humidity Ratio at Maximum Dry-Bulb {kgWater/kgDryAir}
    ,                        !- Enthalpy at Maximum Dry-Bulb {J/kg}
    ,                        !- Daily Wet-Bulb Temperature Range {deltaC}
    101241,                  !- Barometric Pressure {Pa}
    5.6,                     !- Wind Speed {m/s}
    230,                     !- Wind Direction {deg}
    No,                      !- Rain Indicator
    No,                      !- Snow Indicator
    No,                      !- Daylight Saving Time Indicator
    ASHRAETau,               !- Solar Model Indicator
    ,                        !- Beam Solar Day Schedule Name
    ,                        !- Diffuse Solar Day Schedule Name
    0.541,                   !- ASHRAE Clear Sky Optical Depth for Beam Irradiance (taub) {dimensionless}
    1.8;                     !- ASHRAE Clear Sky Optical Depth for Diffuse Irradiance (taud) {dimensionless}


!-   ===========  ALL OBJECTS IN CLASS: RUNPERIOD ===========

RunPeriod,
    RUNPERIOD 1,             !- Name
    1,                       !- Begin Month
    1,                       !- Begin Day of Month
    ,                        !- Begin Year
    12,                      !- End Month
    31,                      !- End Day of Month
    ,                        !- End Year
    Sunday,                  !- Day of Week for Start Day
    No,                      !- Use Weather File Holidays and Special Days
    No,                      !- Use Weather File Daylight Saving Period
    No,                      !- Apply Weekend Holiday Rule
    Yes,                     !- Use Weather File Rain Indicators
    Yes;                     !- Use Weather File Snow Indicators


!-   ===========  ALL OBJECTS IN CLASS: RUNPERIODCONTROL:SPECIALDAYS ===========

RunPeriodControl:SpecialDays,
    New Years Day,           !- Name
    January 1,               !- Start Date
    1,                       !- Duration {days}
    Holiday;                 !- Special Day Type

RunPeriodControl:SpecialDays,
    Veterans Day,            !- Name
    November 11,             !- Start Date
    1,                       !- Duration {days}
    Holiday;                 !- Special Day Type

RunPeriodControl:SpecialDays,
    Christmas,               !- Name
    December 25,             !- Start Date
    1,                       !- Duration {days}
    Holiday;                 !- Special Day Type

RunPeriodControl:SpecialDays,
    Independence Day,        !- Name
    July 4,                  !- Start Date
    1,                       !- Duration {days}
    Holiday;                 !- Special Day Type

RunPeriodControl:SpecialDays,
    MLK Day,                 !- Name
    3rd Monday in January,   !- Start Date
    1,                       !- Duration {days}
    Holiday;                 !- Special Day Type

RunPeriodControl:SpecialDays,
    Presidents Day,          !- Name
    3rd Monday in February,  !- Start Date
    1,                       !- Duration {days}
    Holiday;                 !- Special Day Type

RunPeriodControl:SpecialDays,
    Memorial Day,            !- Name
    Last Monday in May,      !- Start Date
    1,                       !- Duration {days}
    Holiday;                 !- Special Day Type

RunPeriodControl:SpecialDays,
    Labor Day,               !- Name
    1st Monday in September, !- Start Date
    1,                       !- Duration {days}
    Holiday;                 !- Special Day Type

RunPeriodControl:SpecialDays,
    Columbus Day,            !- Name
    2nd Monday in October,   !- Start Date
    1,                       !- Duration {days}
    Holiday;                 !- Special Day Type

RunPeriodControl:SpecialDays,
    Thanksgiving,            !- Name
    4th Thursday in November,!- Start Date
    1,                       !- Duration {days}
    Holiday;                 !- Special Day Type


!-   ===========  ALL OBJECTS IN CLASS: RUNPERIODCONTROL:DAYLIGHTSAVINGTIME ===========

RunPeriodControl:DaylightSavingTime,
    2nd Sunday in March,     !- Start Date
    1st Sunday in November;  !- End Date


!-   ===========  ALL OBJECTS IN CLASS: SITE:GROUNDTEMPERATURE:FCFACTORMETHOD ===========

Site:GroundTemperature:FCfactorMethod,
    14,                      !- January Ground Temperature {C}
    7.3,                     !- February Ground Temperature {C}
    3.3,                     !- March Ground Temperature {C}
    1.2,                     !- April Ground Temperature {C}
    -0.2,                    !- May Ground Temperature {C}
    5.6,                     !- June Ground Temperature {C}
    10.9,                    !- July Ground Temperature {C}
    16.1,                    !- August Ground Temperature {C}
    21.7,                    !- September Ground Temperature {C}
    25,                      !- October Ground Temperature {C}
    24.8,                    !- November Ground Temperature {C}
    19.9;                    !- December Ground Temperature {C}


!-   ===========  ALL OBJECTS IN CLASS: SITE:WATERMAINSTEMPERATURE ===========

Site:WaterMainsTemperature,
    Correlation,             !- Calculation Method
    ,                        !- Temperature Schedule Name
    12.4666666666667,        !- Annual Average Outdoor Air Temperature {C}
    25.2;                    !- Maximum Difference In Monthly Average Outdoor Air Temperatures {deltaC}


!-   ===========  ALL OBJECTS IN CLASS: SCHEDULETYPELIMITS ===========

ScheduleTypeLimits,
    Any Number;              !- Name

ScheduleTypeLimits,
    Fraction,                !- Name
    0,                       !- Lower Limit Value
    1,                       !- Upper Limit Value
    CONTINUOUS;              !- Numeric Type

ScheduleTypeLimits,
    Temperature,             !- Name
    -60,                     !- Lower Limit Value
    200,                     !- Upper Limit Value
    CONTINUOUS;              !- Numeric Type

ScheduleTypeLimits,
    On/Off,                  !- Name
    0,                       !- Lower Limit Value
    1,                       !- Upper Limit Value
    DISCRETE;                !- Numeric Type

ScheduleTypeLimits,
    Control Type,            !- Name
    0,                       !- Lower Limit Value
    4,                       !- Upper Limit Value
    DISCRETE;                !- Numeric Type

ScheduleTypeLimits,
    Humidity,                !- Name
    10,                      !- Lower Limit Value
    90,                      !- Upper Limit Value
    CONTINUOUS;              !- Numeric Type

ScheduleTypeLimits,
    Number;                  !- Name


!-   ===========  ALL OBJECTS IN CLASS: SCHEDULE:COMPACT ===========

Schedule:Compact,
    BLDG_LIGHT_CORRIDOR_SCH, !- Name
    Fraction,                !- Schedule Type Limits Name
    Through: 12/31,          !- Field 1
    For: Weekdays,           !- Field 2
    Until: 1:00,             !- Field 3
    0.108459,                !- Field 4
    Until: 2:00,             !- Field 5
    0.08134425,              !- Field 6
    Until: 5:00,             !- Field 7
    0.0542295,               !- Field 8
    Until: 6:00,             !- Field 9
    0.108459,                !- Field 10
    Until: 7:00,             !- Field 11
    0.216918,                !- Field 12
    Until: 8:00,             !- Field 13
    0.2711475,               !- Field 14
    Until: 10:00,            !- Field 15
    0.216918,                !- Field 16
    Until: 18:00,            !- Field 17
    0.13557375,              !- Field 18
    Until: 19:00,            !- Field 19
    0.325377,                !- Field 20
    Until: 20:00,            !- Field 21
    0.433836,                !- Field 22
    Until: 21:00,            !- Field 23
    0.4880655,               !- Field 24
    Until: 22:00,            !- Field 25
    0.433836,                !- Field 26
    Until: 23:00,            !- Field 27
    0.325377,                !- Field 28
    Until: 24:00,            !- Field 29
    0.1626885,               !- Field 30
    For: Saturday,           !- Field 31
    Until: 2:00,             !- Field 32
    0.108459,                !- Field 33
    Until: 6:00,             !- Field 34
    0.0542295,               !- Field 35
    Until: 8:00,             !- Field 36
    0.1626885,               !- Field 37
    Until: 10:00,            !- Field 38
    0.216918,                !- Field 39
    Until: 11:00,            !- Field 40
    0.1626885,               !- Field 41
    Until: 18:00,            !- Field 42
    0.13557375,              !- Field 43
    Until: 19:00,            !- Field 44
    0.325377,                !- Field 45
    Until: 22:00,            !- Field 46
    0.3796065,               !- Field 47
    Until: 23:00,            !- Field 48
    0.325377,                !- Field 49
    Until: 24:00,            !- Field 50
    0.1626885,               !- Field 51
    For: SummerDesignDay,    !- Field 52
    Until: 24:00,            !- Field 53
    1,                       !- Field 54
    For: WinterDesignDay,    !- Field 55
    Until: 24:00,            !- Field 56
    0,                       !- Field 57
    For: Sunday Holidays AllOtherDays,  !- Field 58
    Until: 2:00,             !- Field 59
    0.1626885,               !- Field 60
    Until: 6:00,             !- Field 61
    0.108459,                !- Field 62
    Until: 7:00,             !- Field 63
    0.1626885,               !- Field 64
    Until: 9:00,             !- Field 65
    0.216918,                !- Field 66
    Until: 13:00,            !- Field 67
    0.1626885,               !- Field 68
    Until: 18:00,            !- Field 69
    0.108459,                !- Field 70
    Until: 19:00,            !- Field 71
    0.2711475,               !- Field 72
    Until: 20:00,            !- Field 73
    0.3796065,               !- Field 74
    Until: 21:00,            !- Field 75
    0.433836,                !- Field 76
    Until: 22:00,            !- Field 77
    0.325377,                !- Field 78
    Until: 23:00,            !- Field 79
    0.2711475,               !- Field 80
    Until: 24:00,            !- Field 81
    0.1626885;               !- Field 82

Schedule:Compact,
    BLDG_LIGHT_GUESTROOM_SCH,!- Name
    Fraction,                !- Schedule Type Limits Name
    Through: 12/31,          !- Field 1
    For: Weekdays,           !- Field 2
    Until: 1:00,             !- Field 3
    0.11,                    !- Field 4
    Until: 2:00,             !- Field 5
    0.09,                    !- Field 6
    Until: 5:00,             !- Field 7
    0.06,                    !- Field 8
    Until: 6:00,             !- Field 9
    0.11,                    !- Field 10
    Until: 7:00,             !- Field 11
    0.35,                    !- Field 12
    Until: 8:00,             !- Field 13
    0.45,                    !- Field 14
    Until: 10:00,            !- Field 15
    0.35,                    !- Field 16
    Until: 16:00,            !- Field 17
    0.05,                    !- Field 18
    Until: 17:00,            !- Field 19
    0.064,                   !- Field 20
    Until: 18:00,            !- Field 21
    0.07,                    !- Field 22
    Until: 19:00,            !- Field 23
    0.54,                    !- Field 24
    Until: 20:00,            !- Field 25
    0.71,                    !- Field 26
    Until: 21:00,            !- Field 27
    0.8,                     !- Field 28
    Until: 22:00,            !- Field 29
    0.71,                    !- Field 30
    Until: 23:00,            !- Field 31
    0.54,                    !- Field 32
    Until: 24:00,            !- Field 33
    0.26,                    !- Field 34
    For: Saturday Sunday Holidays,  !- Field 35
    Until: 2:00,             !- Field 36
    0.13,                    !- Field 37
    Until: 6:00,             !- Field 38
    0.06,                    !- Field 39
    Until: 8:00,             !- Field 40
    0.33,                    !- Field 41
    Until: 9:00,             !- Field 42
    0.45,                    !- Field 43
    Until: 10:00,            !- Field 44
    0.186667,                !- Field 45
    Until: 11:00,            !- Field 46
    0.062121,                !- Field 47
    Until: 17:00,            !- Field 48
    0.05,                    !- Field 49
    Until: 18:00,            !- Field 50
    0.0825,                  !- Field 51
    Until: 19:00,            !- Field 52
    0.68,                    !- Field 53
    Until: 22:00,            !- Field 54
    0.8,                     !- Field 55
    Until: 23:00,            !- Field 56
    0.68,                    !- Field 57
    Until: 24:00,            !- Field 58
    0.33,                    !- Field 59
    For: WinterDesignDay,    !- Field 60
    Until: 24:00,            !- Field 61
    0,                       !- Field 62
    For: SummerDesignDay CustomDay1 CustomDay2,  !- Field 63
    Until: 24:00,            !- Field 64
    1;                       !- Field 65

Schedule:Compact,
    BLDG_LIGHT_MECHANIC_SCH, !- Name
    Fraction,                !- Schedule Type Limits Name
    Through: 12/31,          !- Field 1
    For: Weekdays,           !- Field 2
    Until: 1:00,             !- Field 3
    0.2,                     !- Field 4
    Until: 2:00,             !- Field 5
    0.15,                    !- Field 6
    Until: 5:00,             !- Field 7
    0.1,                     !- Field 8
    Until: 6:00,             !- Field 9
    0.2,                     !- Field 10
    Until: 7:00,             !- Field 11
    0.4,                     !- Field 12
    Until: 8:00,             !- Field 13
    0.5,                     !- Field 14
    Until: 10:00,            !- Field 15
    0.4,                     !- Field 16
    Until: 18:00,            !- Field 17
    0.25,                    !- Field 18
    Until: 19:00,            !- Field 19
    0.6,                     !- Field 20
    Until: 20:00,            !- Field 21
    0.8,                     !- Field 22
    Until: 21:00,            !- Field 23
    0.9,                     !- Field 24
    Until: 22:00,            !- Field 25
    0.8,                     !- Field 26
    Until: 23:00,            !- Field 27
    0.6,                     !- Field 28
    Until: 24:00,            !- Field 29
    0.3,                     !- Field 30
    For: Saturday,           !- Field 31
    Until: 2:00,             !- Field 32
    0.2,                     !- Field 33
    Until: 6:00,             !- Field 34
    0.1,                     !- Field 35
    Until: 8:00,             !- Field 36
    0.3,                     !- Field 37
    Until: 10:00,            !- Field 38
    0.4,                     !- Field 39
    Until: 11:00,            !- Field 40
    0.3,                     !- Field 41
    Until: 18:00,            !- Field 42
    0.25,                    !- Field 43
    Until: 19:00,            !- Field 44
    0.6,                     !- Field 45
    Until: 22:00,            !- Field 46
    0.7,                     !- Field 47
    Until: 23:00,            !- Field 48
    0.6,                     !- Field 49
    Until: 24:00,            !- Field 50
    0.3,                     !- Field 51
    For: SummerDesignDay,    !- Field 52
    Until: 24:00,            !- Field 53
    1,                       !- Field 54
    For: WinterDesignDay,    !- Field 55
    Until: 24:00,            !- Field 56
    0,                       !- Field 57
    For: Sunday Holidays AllOtherDays,  !- Field 58
    Until: 2:00,             !- Field 59
    0.3,                     !- Field 60
    Until: 6:00,             !- Field 61
    0.2,                     !- Field 62
    Until: 7:00,             !- Field 63
    0.3,                     !- Field 64
    Until: 9:00,             !- Field 65
    0.4,                     !- Field 66
    Until: 13:00,            !- Field 67
    0.3,                     !- Field 68
    Until: 18:00,            !- Field 69
    0.2,                     !- Field 70
    Until: 19:00,            !- Field 71
    0.5,                     !- Field 72
    Until: 20:00,            !- Field 73
    0.7,                     !- Field 74
    Until: 21:00,            !- Field 75
    0.8,                     !- Field 76
    Until: 22:00,            !- Field 77
    0.6,                     !- Field 78
    Until: 23:00,            !- Field 79
    0.5,                     !- Field 80
    Until: 24:00,            !- Field 81
    0.3;                     !- Field 82

Schedule:Compact,
    BLDG_LIGHT_MISC_SCH,     !- Name
    Fraction,                !- Schedule Type Limits Name
    Through: 12/31,          !- Field 1
    For: Weekdays,           !- Field 2
    Until: 1:00,             !- Field 3
    0.2,                     !- Field 4
    Until: 2:00,             !- Field 5
    0.15,                    !- Field 6
    Until: 5:00,             !- Field 7
    0.1,                     !- Field 8
    Until: 6:00,             !- Field 9
    0.2,                     !- Field 10
    Until: 7:00,             !- Field 11
    0.4,                     !- Field 12
    Until: 8:00,             !- Field 13
    0.5,                     !- Field 14
    Until: 10:00,            !- Field 15
    0.4,                     !- Field 16
    Until: 18:00,            !- Field 17
    0.25,                    !- Field 18
    Until: 19:00,            !- Field 19
    0.6,                     !- Field 20
    Until: 20:00,            !- Field 21
    0.8,                     !- Field 22
    Until: 21:00,            !- Field 23
    0.9,                     !- Field 24
    Until: 22:00,            !- Field 25
    0.8,                     !- Field 26
    Until: 23:00,            !- Field 27
    0.6,                     !- Field 28
    Until: 24:00,            !- Field 29
    0.3,                     !- Field 30
    For: Saturday,           !- Field 31
    Until: 2:00,             !- Field 32
    0.2,                     !- Field 33
    Until: 6:00,             !- Field 34
    0.1,                     !- Field 35
    Until: 8:00,             !- Field 36
    0.3,                     !- Field 37
    Until: 10:00,            !- Field 38
    0.4,                     !- Field 39
    Until: 11:00,            !- Field 40
    0.3,                     !- Field 41
    Until: 18:00,            !- Field 42
    0.25,                    !- Field 43
    Until: 19:00,            !- Field 44
    0.6,                     !- Field 45
    Until: 22:00,            !- Field 46
    0.7,                     !- Field 47
    Until: 23:00,            !- Field 48
    0.6,                     !- Field 49
    Until: 24:00,            !- Field 50
    0.3,                     !- Field 51
    For: SummerDesignDay,    !- Field 52
    Until: 24:00,            !- Field 53
    1,                       !- Field 54
    For: WinterDesignDay,    !- Field 55
    Until: 24:00,            !- Field 56
    0,                       !- Field 57
    For: Sunday Holidays AllOtherDays,  !- Field 58
    Until: 2:00,             !- Field 59
    0.3,                     !- Field 60
    Until: 6:00,             !- Field 61
    0.2,                     !- Field 62
    Until: 7:00,             !- Field 63
    0.3,                     !- Field 64
    Until: 9:00,             !- Field 65
    0.4,                     !- Field 66
    Until: 13:00,            !- Field 67
    0.3,                     !- Field 68
    Until: 18:00,            !- Field 69
    0.2,                     !- Field 70
    Until: 19:00,            !- Field 71
    0.5,                     !- Field 72
    Until: 20:00,            !- Field 73
    0.7,                     !- Field 74
    Until: 21:00,            !- Field 75
    0.8,                     !- Field 76
    Until: 22:00,            !- Field 77
    0.6,                     !- Field 78
    Until: 23:00,            !- Field 79
    0.5,                     !- Field 80
    Until: 24:00,            !- Field 81
    0.3;                     !- Field 82

Schedule:Compact,
    BLDG_LIGHT_OFFICE_BSMT_SCH,  !- Name
    Fraction,                !- Schedule Type Limits Name
    Through: 12/31,          !- Field 1
    For: Weekdays,           !- Field 2
    Until: 1:00,             !- Field 3
    0.1788375,               !- Field 4
    Until: 2:00,             !- Field 5
    0.134128125,             !- Field 6
    Until: 5:00,             !- Field 7
    0.08941875,              !- Field 8
    Until: 6:00,             !- Field 9
    0.1788375,               !- Field 10
    Until: 7:00,             !- Field 11
    0.357675,                !- Field 12
    Until: 8:00,             !- Field 13
    0.44709375,              !- Field 14
    Until: 10:00,            !- Field 15
    0.357675,                !- Field 16
    Until: 18:00,            !- Field 17
    0.223546875,             !- Field 18
    Until: 19:00,            !- Field 19
    0.5365125,               !- Field 20
    Until: 20:00,            !- Field 21
    0.71535,                 !- Field 22
    Until: 21:00,            !- Field 23
    0.80476875,              !- Field 24
    Until: 22:00,            !- Field 25
    0.71535,                 !- Field 26
    Until: 23:00,            !- Field 27
    0.5365125,               !- Field 28
    Until: 24:00,            !- Field 29
    0.26825625,              !- Field 30
    For: Saturday,           !- Field 31
    Until: 2:00,             !- Field 32
    0.1788375,               !- Field 33
    Until: 6:00,             !- Field 34
    0.08941875,              !- Field 35
    Until: 8:00,             !- Field 36
    0.26825625,              !- Field 37
    Until: 10:00,            !- Field 38
    0.357675,                !- Field 39
    Until: 11:00,            !- Field 40
    0.26825625,              !- Field 41
    Until: 18:00,            !- Field 42
    0.223546875,             !- Field 43
    Until: 19:00,            !- Field 44
    0.5365125,               !- Field 45
    Until: 22:00,            !- Field 46
    0.62593125,              !- Field 47
    Until: 23:00,            !- Field 48
    0.5365125,               !- Field 49
    Until: 24:00,            !- Field 50
    0.26825625,              !- Field 51
    For: SummerDesignDay,    !- Field 52
    Until: 24:00,            !- Field 53
    1,                       !- Field 54
    For: WinterDesignDay,    !- Field 55
    Until: 24:00,            !- Field 56
    0,                       !- Field 57
    For: Sunday Holidays AllOtherDays,  !- Field 58
    Until: 2:00,             !- Field 59
    0.26825625,              !- Field 60
    Until: 6:00,             !- Field 61
    0.1788375,               !- Field 62
    Until: 7:00,             !- Field 63
    0.26825625,              !- Field 64
    Until: 9:00,             !- Field 65
    0.357675,                !- Field 66
    Until: 13:00,            !- Field 67
    0.26825625,              !- Field 68
    Until: 18:00,            !- Field 69
    0.1788375,               !- Field 70
    Until: 19:00,            !- Field 71
    0.44709375,              !- Field 72
    Until: 20:00,            !- Field 73
    0.62593125,              !- Field 74
    Until: 21:00,            !- Field 75
    0.71535,                 !- Field 76
    Until: 22:00,            !- Field 77
    0.5365125,               !- Field 78
    Until: 23:00,            !- Field 79
    0.44709375,              !- Field 80
    Until: 24:00,            !- Field 81
    0.26825625;              !- Field 82

Schedule:Compact,
    BLDG_LIGHT_SCH,          !- Name
    Fraction,                !- Schedule Type Limits Name
    Through: 12/31,          !- Field 1
    For: Weekdays,           !- Field 2
    Until: 1:00,             !- Field 3
    0.2,                     !- Field 4
    Until: 2:00,             !- Field 5
    0.15,                    !- Field 6
    Until: 5:00,             !- Field 7
    0.1,                     !- Field 8
    Until: 6:00,             !- Field 9
    0.2,                     !- Field 10
    Until: 7:00,             !- Field 11
    0.4,                     !- Field 12