!-Generator IDFEditor 1.50
!-Option SortedOrder

!-NOTE: All comments with '!-' are ignored by the IDFEditor and are generated automatically.
!-      Use '!' comments if they need to be retained when using the IDFEditor.


!-   ===========  ALL OBJECTS IN CLASS: VERSION ===========

Version,
    9.2;                     !- Version Identifier


!-   ===========  ALL OBJECTS IN CLASS: SIMULATIONCONTROL ===========

SimulationControl,
    Yes,                     !- Do Zone Sizing Calculation
    Yes,                     !- Do System Sizing Calculation
    No,                      !- Do Plant Sizing Calculation
    No,                      !- Run Simulation for Sizing Periods
    Yes;                     !- Run Simulation for Weather File Run Periods


!-   ===========  ALL OBJECTS IN CLASS: BUILDING ===========

Building,
    -HighriseApartment-ASHRAE 169-2013-2A created: 2020-03-25 14:03:00 +0100,  !- Name
    0,                       !- North Axis {deg}
    City,                    !- Terrain
    0.04,                    !- Loads Convergence Tolerance Value
    0.2,                     !- Temperature Convergence Tolerance Value {deltaC}
    FullInteriorAndExterior, !- Solar Distribution
    25,                      !- Maximum Number of Warmup Days
    6;                       !- Minimum Number of Warmup Days


!-   ===========  ALL OBJECTS IN CLASS: SHADOWCALCULATION ===========

ShadowCalculation,
    AverageOverDaysInFrequency,  !- Calculation Method
    30,                      !- Calculation Frequency
    15000;                   !- Maximum Figures in Shadow Overlap Calculations


!-   ===========  ALL OBJECTS IN CLASS: HEATBALANCEALGORITHM ===========

HeatBalanceAlgorithm,
    ConductionTransferFunction,  !- Algorithm
    200;                     !- Surface Temperature Upper Limit {C}


!-   ===========  ALL OBJECTS IN CLASS: TIMESTEP ===========

Timestep,
    6;                       !- Number of Timesteps per Hour


!-   ===========  ALL OBJECTS IN CLASS: CONVERGENCELIMITS ===========

ConvergenceLimits,
    1,                       !- Minimum System Timestep {minutes}
    20;                      !- Maximum HVAC Iterations


!-   ===========  ALL OBJECTS IN CLASS: SITE:LOCATION ===========

Site:Location,
    Tampa-MacDill AFB_FL_USA,!- Name
    27.85,                   !- Latitude {deg}
    -82.52,                  !- Longitude {deg}
    -5,                      !- Time Zone {hr}
    8;                       !- Elevation {m}


!-   ===========  ALL OBJECTS IN CLASS: SIZINGPERIOD:DESIGNDAY ===========

SizingPeriod:DesignDay,
    Tampa-MacDill.AFB_FL_USA Ann Clg .4% Condns DB=>MWB,  !- Name
    8,                       !- Month
    21,                      !- Day of Month
    SummerDesignDay,         !- Day Type
    33.9,                    !- Maximum Dry-Bulb Temperature {C}
    7.9,                     !- Daily Dry-Bulb Temperature Range {deltaC}
    DefaultMultipliers,      !- Dry-Bulb Temperature Range Modifier Type
    ,                        !- Dry-Bulb Temperature Range Modifier Day Schedule Name
    Wetbulb,                 !- Humidity Condition Type
    25.1,                    !- Wetbulb or DewPoint at Maximum Dry-Bulb {C}
    ,                        !- Humidity Condition Day Schedule Name
    ,                        !- Humidity Ratio at Maximum Dry-Bulb {kgWater/kgDryAir}
    ,                        !- Enthalpy at Maximum Dry-Bulb {J/kg}
    ,                        !- Daily Wet-Bulb Temperature Range {deltaC}
    101229,                  !- Barometric Pressure {Pa}
    3.1,                     !- Wind Speed {m/s}
    270,                     !- Wind Direction {deg}
    No,                      !- Rain Indicator
    No,                      !- Snow Indicator
    No,                      !- Daylight Saving Time Indicator
    ASHRAETau,               !- Solar Model Indicator
    ,                        !- Beam Solar Day Schedule Name
    ,                        !- Diffuse Solar Day Schedule Name
    0.491,                   !- ASHRAE Clear Sky Optical Depth for Beam Irradiance (taub) {dimensionless}
    2.016;                   !- ASHRAE Clear Sky Optical Depth for Diffuse Irradiance (taud) {dimensionless}

SizingPeriod:DesignDay,
    Tampa-MacDill.AFB_FL_USA Ann Htg 99.6% Condns DB,  !- Name
    1,                       !- Month
    21,                      !- Day of Month
    WinterDesignDay,         !- Day Type
    4.6,                     !- Maximum Dry-Bulb Temperature {C}
    0,                       !- Daily Dry-Bulb Temperature Range {deltaC}
    DefaultMultipliers,      !- Dry-Bulb Temperature Range Modifier Type
    ,                        !- Dry-Bulb Temperature Range Modifier Day Schedule Name
    Wetbulb,                 !- Humidity Condition Type
    4.6,                     !- Wetbulb or DewPoint at Maximum Dry-Bulb {C}
    ,                        !- Humidity Condition Day Schedule Name
    ,                        !- Humidity Ratio at Maximum Dry-Bulb {kgWater/kgDryAir}
    ,                        !- Enthalpy at Maximum Dry-Bulb {J/kg}
    ,                        !- Daily Wet-Bulb Temperature Range {deltaC}
    101229,                  !- Barometric Pressure {Pa}
    2.5,                     !- Wind Speed {m/s}
    10,                      !- Wind Direction {deg}
    No,                      !- Rain Indicator
    No,                      !- Snow Indicator
    No,                      !- Daylight Saving Time Indicator
    ASHRAEClearSky,          !- Solar Model Indicator
    ,                        !- Beam Solar Day Schedule Name
    ,                        !- Diffuse Solar Day Schedule Name
    ,                        !- ASHRAE Clear Sky Optical Depth for Beam Irradiance (taub) {dimensionless}
    ,                        !- ASHRAE Clear Sky Optical Depth for Diffuse Irradiance (taud) {dimensionless}
    0;                       !- Sky Clearness


!-   ===========  ALL OBJECTS IN CLASS: RUNPERIOD ===========

! Ground temperature object copied from Chicago IECC 2006 file
RunPeriod,
    annual,                  !- Name
    1,                       !- Begin Month
    1,                       !- Begin Day of Month
    ,                        !- Begin Year
    12,                      !- End Month
    31,                      !- End Day of Month
    ,                        !- End Year
    ,                        !- Day of Week for Start Day
    Yes,                     !- Use Weather File Holidays and Special Days
    Yes,                     !- Use Weather File Daylight Saving Period
    No,                      !- Apply Weekend Holiday Rule
    Yes,                     !- Use Weather File Rain Indicators
    Yes;                     !- Use Weather File Snow Indicators


!-   ===========  ALL OBJECTS IN CLASS: RUNPERIODCONTROL:DAYLIGHTSAVINGTIME ===========

RunPeriodControl:DaylightSavingTime,
    2nd Sunday in March,     !- Start Date
    1st Sunday in November;  !- End Date


!-   ===========  ALL OBJECTS IN CLASS: SCHEDULETYPELIMITS ===========

ScheduleTypeLimits,
    Fraction,                !- Name
    0,                       !- Lower Limit Value
    1,                       !- Upper Limit Value
    Continuous;              !- Numeric Type

ScheduleTypeLimits,
    Temperature,             !- Name
    -100,                    !- Lower Limit Value
    100,                     !- Upper Limit Value
    Continuous;              !- Numeric Type

ScheduleTypeLimits,
    Any Number;              !- Name

ScheduleTypeLimits,
    Control Type,            !- Name
    0,                       !- Lower Limit Value
    4,                       !- Upper Limit Value
    Discrete;                !- Numeric Type

ScheduleTypeLimits,
    COMPACT HVAC Any Number; !- Name

ScheduleTypeLimits,
    On/Off,                  !- Name
    0,                       !- Lower Limit Value
    1,                       !- Upper Limit Value
    Discrete;                !- Numeric Type


!-   ===========  ALL OBJECTS IN CLASS: SCHEDULE:COMPACT ===========

Schedule:Compact,
    LTG_COR_SCH,             !- Name
    Fraction,                !- Schedule Type Limits Name
    Through: 12/31,          !- Field 1
    For: AllDays,            !- Field 2
    Until: 24:00,            !- Field 3
    0.5;                     !- Field 4

Schedule:Compact,
    EQP_APT_SCH,             !- Name
    Fraction,                !- Schedule Type Limits Name
    Through: 12/31,          !- Field 1
    For: AllDays,            !- Field 2
    Until: 1:00,             !- Field 3
    0.45,                    !- Field 4
    Until: 2:00,             !- Field 5
    0.41,                    !- Field 6
    Until: 3:00,             !- Field 7
    0.39,                    !- Field 8
    Until: 5:00,             !- Field 9
    0.38,                    !- Field 10
    Until: 6:00,             !- Field 11
    0.43,                    !- Field 12
    Until: 7:00,             !- Field 13
    0.54,                    !- Field 14
    Until: 8:00,             !- Field 15
    0.65,                    !- Field 16
    Until: 9:00,             !- Field 17
    0.66,                    !- Field 18
    Until: 10:00,            !- Field 19
    0.67,                    !- Field 20
    Until: 11:00,            !- Field 21
    0.69,                    !- Field 22
    Until: 12:00,            !- Field 23
    0.70,                    !- Field 24
    Until: 13:00,            !- Field 25
    0.69,                    !- Field 26
    Until: 14:00,            !- Field 27
    0.66,                    !- Field 28
    Until: 15:00,            !- Field 29
    0.65,                    !- Field 30
    Until: 16:00,            !- Field 31
    0.68,                    !- Field 32
    Until: 17:00,            !- Field 33
    0.80,                    !- Field 34
    Until: 19:00,            !- Field 35
    1.0,                     !- Field 36
    Until: 20:00,            !- Field 37
    0.93,                    !- Field 38
    Until: 21:00,            !- Field 39
    0.89,                    !- Field 40
    Until: 22:00,            !- Field 41
    0.85,                    !- Field 42
    Until: 23:00,            !- Field 43
    0.71,                    !- Field 44
    Until: 24:00,            !- Field 45
    0.58;                    !- Field 46

Schedule:Compact,
    EQP_OFF_SCH,             !- Name
    Fraction,                !- Schedule Type Limits Name
    Through: 12/31,          !- Field 1
    For: Weekdays,           !- Field 2
    Until: 7:00,             !- Field 3
    0.33,                    !- Field 4
    Until: 8:00,             !- Field 5
    0.5,                     !- Field 6
    Until: 12:00,            !- Field 7
    1,                       !- Field 8
    Until: 13:00,            !- Field 9
    0.94,                    !- Field 10
    Until: 17:00,            !- Field 11
    1,                       !- Field 12
    Until: 18:00,            !- Field 13
    0.5,                     !- Field 14
    Until: 24:00,            !- Field 15
    0.33,                    !- Field 16
    For AllOtherDays,        !- Field 17
    Until: 24:00,            !- Field 18
    0.33;                    !- Field 19

Schedule:Compact,
    INF_APT_SCH,             !- Name
    Fraction,                !- Schedule Type Limits Name
    Through: 12/31,          !- Field 1
    For: AllDays,            !- Field 2
    Until: 24:00,            !- Field 3
    1.0;                     !- Field 4

Schedule:Compact,
    INF_OFF_SCH,             !- Name
    Fraction,                !- Schedule Type Limits Name
    Through: 12/31,          !- Field 1
    For: AllDays,            !- Field 2
    Until: 24:00,            !- Field 3
    1.0;                     !- Field 4

Schedule:Compact,
    INF_COR_SCH,             !- Name
    Fraction,                !- Schedule Type Limits Name
    Through: 12/31,          !- Field 1
    For: AllDays,            !- Field 2
    Until: 24:00,            !- Field 3
    1.0;                     !- Field 4

Schedule:Compact,
    INFIL_Door_Opening_SCH,  !- Name
    fraction,                !- Schedule Type Limits Name
    Through: 12/31,          !- Field 1
    For: AllDays,            !- Field 2
    Until: 06:00,            !- Field 3
    0.0,                     !- Field 4
    Until: 07:00,            !- Field 5
    0.144,                   !- Field 6
    Until: 08:00,            !- Field 7
    1.0,                     !- Field 8
    Until: 17:00,            !- Field 9
    0.144,                   !- Field 10
    Until: 18:00,            !- Field 11
    1.0,                     !- Field 12
    Until: 22:00,            !- Field 13
    0.144,                   !- Field 14
    Until: 24:00,            !- Field 15
    0.0;                     !- Field 16

Schedule:Compact,
    HTGSETP_APT_SCH,         !- Name
    Temperature,             !- Schedule Type Limits Name
    THROUGH: 12/31,          !- Field 1
    FOR:AllDays,             !- Field 2
    UNTIL: 24:00,            !- Field 3
    22.22;                   !- Field 4

Schedule:Compact,
    CLGSETP_APT_SCH,         !- Name
    Temperature,             !- Schedule Type Limits Name
    THROUGH: 12/31,          !- Field 1
    FOR:AllDays,             !- Field 2
    UNTIL: 24:00,            !- Field 3
    26;                      !- Field 4

Schedule:Compact,
    HTGSETP_DESIGN_OFF_SCH,  !- Name
    Temperature,             !- Schedule Type Limits Name
    THROUGH: 12/31,          !- Field 1
    FOR:AllDays,             !- Field 2
    UNTIL: 24:00,            !- Field 3
    22.22;                   !- Field 4

Schedule:Compact,
    CLGSETP_DESIGN_OFF_SCH,  !- Name
    Temperature,             !- Schedule Type Limits Name
    THROUGH: 12/31,          !- Field 1
    FOR:AllDays,             !- Field 2
    UNTIL: 24:00,            !- Field 3
    26;                      !- Field 4

Schedule:Compact,
    HTGSETP_OFF_SCH_No_Optimum,  !- Name
    Temperature,             !- Schedule Type Limits Name
    THROUGH: 12/31,          !- Field 1
    FOR: WinterDesignDay SummerDesignDay,  !- Field 2
    UNTIL: 7:00,             !- Field 3
    22.22,                   !- Field 4
    UNTIL: 8:00,             !- Field 5
    22.22,                   !- Field 6
    UNTIL:17:00,             !- Field 7
    22.22,                   !- Field 8
    UNTIL: 18:00,            !- Field 9
    22.22,                   !- Field 10
    UNTIL: 24:00,            !- Field 11
    22.22,                   !- Field 12
    FOR:Weekdays,            !- Field 13
    UNTIL: 7:00,             !- Field 14
    22.22,                   !- Field 15
    UNTIL: 8:00,             !- Field 16
    22.22,                   !- Field 17
    UNTIL:17:00,             !- Field 18
    22.22,                   !- Field 19
    UNTIL: 18:00,            !- Field 20
    22.22,                   !- Field 21
    UNTIL: 24:00,            !- Field 22
    22.22,                   !- Field 23
    FOR: AllOtherDays,       !- Field 24
    UNTIL: 24:00,            !- Field 25
    22.22;                   !- Field 26

Schedule:Compact,
    HTGSETP_OFF_SCH_Yes_Optimum,  !- Name
    Temperature,             !- Schedule Type Limits Name
    THROUGH: 12/31,          !- Field 1
    FOR: WinterDesignDay SummerDesignDay,  !- Field 2
    UNTIL: 7:00,             !- Field 3
    22.22,                   !- Field 4
    UNTIL: 8:00,             !- Field 5
    22.22,                   !- Field 6
    UNTIL: 17:00,            !- Field 7
    22.22,                   !- Field 8
    UNTIL: 18:00,            !- Field 9
    22.22,                   !- Field 10
    UNTIL: 24:00,            !- Field 11
    22.22,                   !- Field 12
    FOR:Weekdays,            !- Field 13
    UNTIL: 7:00,             !- Field 14
    22.22,                   !- Field 15
    UNTIL: 8:00,             !- Field 16
    22.22,                   !- Field 17
    UNTIL: 9:00,             !- Field 18
    22.22,                   !- Field 19
    UNTIL: 17:00,            !- Field 20
    22.22,                   !- Field 21
    UNTIL: 18:00,            !- Field 22
    22.22,                   !- Field 23
    UNTIL: 24:00,            !- Field 24
    22.22,                   !- Field 25
    FOR: AllOtherDays,       !- Field 26
    UNTIL: 24:00,            !- Field 27
    22.22;                   !- Field 28

Schedule:Compact,
    HTGSETP_OFF_SCH_Yes_Optimum_Original,  !- Name
    Temperature,             !- Schedule Type Limits Name
    THROUGH: 12/31,          !- Field 1
    FOR: WinterDesignDay SummerDesignDay,  !- Field 2
    UNTIL: 7:00,             !- Field 3
    22.22,                   !- Field 4
    UNTIL: 8:00,             !- Field 5
    22.22,                   !- Field 6
    UNTIL: 17:00,            !- Field 7
    22.22,                   !- Field 8
    UNTIL: 18:00,            !- Field 9
    22.22,                   !- Field 10
    UNTIL: 24:00,            !- Field 11
    22.22,                   !- Field 12
    FOR:Weekdays,            !- Field 13
    UNTIL: 7:00,             !- Field 14
    22.22,                   !- Field 15
    UNTIL: 8:00,             !- Field 16
    22.22,                   !- Field 17
    UNTIL: 9:00,             !- Field 18
    22.22,                   !- Field 19
    UNTIL: 17:00,            !- Field 20
    22.22,                   !- Field 21
    UNTIL: 18:00,            !- Field 22
    22.22,                   !- Field 23
    UNTIL: 24:00,            !- Field 24
    22.22,                   !- Field 25
    FOR: AllOtherDays,       !- Field 26
    UNTIL: 24:00,            !- Field 27
    22.22;                   !- Field 28

Schedule:Compact,
    CLGSETP_OFF_SCH_No_Optimum,  !- Name
    Temperature,             !- Schedule Type Limits Name
    THROUGH: 12/31,          !- Field 1
    FOR: WinterDesignDay SummerDesignDay,  !- Field 2
    UNTIL: 7:00,             !- Field 3
    29.4,                    !- Field 4
    UNTIL: 8:00,             !- Field 5
    26.7,                    !- Field 6
    UNTIL:17:00,             !- Field 7
    25.9,                    !- Field 8
    UNTIL: 18:00,            !- Field 9
    26.7,                    !- Field 10
    UNTIL: 24:00,            !- Field 11
    29.4,                    !- Field 12
    FOR:Weekdays,            !- Field 13
    UNTIL: 7:00,             !- Field 14
    29.4,                    !- Field 15
    UNTIL: 8:00,             !- Field 16
    25.9,                    !- Field 17
    UNTIL:17:00,             !- Field 18
    25.9,                    !- Field 19
    UNTIL: 18:00,            !- Field 20
    26.7,                    !- Field 21
    UNTIL: 24:00,            !- Field 22
    29.4,                    !- Field 23
    FOR: AllOtherDays,       !- Field 24
    UNTIL: 24:00,            !- Field 25
    29.4;                    !- Field 26

Schedule:Compact,
    CLGSETP_OFF_SCH_Yes_Optimum,  !- Name
    Temperature,             !- Schedule Type Limits Name
    THROUGH: 12/31,          !- Field 1
    FOR: WinterDesignDay SummerDesignDay,  !- Field 2
    UNTIL: 7:00,             !- Field 3
    29.4,                    !- Field 4
    UNTIL: 8:00,             !- Field 5
    26.7,                    !- Field 6
    UNTIL:17:00,             !- Field 7
    25.9,                    !- Field 8
    UNTIL: 18:00,            !- Field 9
    26.7,                    !- Field 10
    UNTIL: 24:00,            !- Field 11
    29.4,                    !- Field 12
    FOR:Weekdays,            !- Field 13
    UNTIL: 7:00,             !- Field 14
    29.4,                    !- Field 15
    UNTIL: 8:00,             !- Field 16
    27.8,                    !- Field 17
    UNTIL: 9:00,             !- Field 18
    25.6,                    !- Field 19
    UNTIL: 17:00,            !- Field 20
    25.9,                    !- Field 21
    UNTIL: 18:00,            !- Field 22
    26.7,                    !- Field 23
    UNTIL: 24:00,            !- Field 24
    29.4,                    !- Field 25
    FOR: AllOtherDays,       !- Field 26
    UNTIL: 24:00,            !- Field 27
    29.4;                    !- Field 28

Schedule:Compact,
    CLGSETP_OFF_SCH_Yes_Optimum_Original,  !- Name
    Temperature,             !- Schedule Type Limits Name
    THROUGH: 12/31,          !- Field 1
    FOR: WinterDesignDay SummerDesignDay,  !- Field 2
    UNTIL: 7:00,             !- Field 3
    29.4,                    !- Field 4
    UNTIL: 8:00,             !- Field 5
    26.7,                    !- Field 6
    UNTIL:17:00,             !- Field 7
    25.9,                    !- Field 8
    UNTIL: 18:00,            !- Field 9
    26.7,                    !- Field 10
    UNTIL: 24:00,            !- Field 11
    29.4,                    !- Field 12
    FOR:Weekdays,            !- Field 13
    UNTIL: 7:00,             !- Field 14
    29.4,                    !- Field 15
    UNTIL: 8:00,             !- Field 16
    27.8,                    !- Field 17
    UNTIL: 9:00,             !- Field 18
    25.6,                    !- Field 19
    UNTIL: 17:00,            !- Field 20
    25.9,                    !- Field 21
    UNTIL: 18:00,            !- Field 22
    26.7,                    !- Field 23
    UNTIL: 24:00,            !- Field 24
    29.4,                    !- Field 25
    FOR: AllOtherDays,       !- Field 26
    UNTIL: 24:00,            !- Field 27
    29.4;                    !- Field 28

Schedule:Compact,
    CLGSETP_OFF_SCH_No_Setback,  !- Name
    Temperature,             !- Schedule Type Limits Name
    THROUGH: 12/31,          !- Field 1
    FOR: WinterDesignDay SummerDesignDay,  !- Field 2
    UNTIL: 7:00,             !- Field 3
    29.4,                    !- Field 4
    UNTIL: 8:00,             !- Field 5
    26.7,                    !- Field 6
    UNTIL:17:00,             !- Field 7
    25.9,                    !- Field 8
    UNTIL: 18:00,            !- Field 9
    26.7,                    !- Field 10
    UNTIL: 24:00,            !- Field 11
    29.4,                    !- Field 12
    FOR:Weekdays,            !- Field 13
    UNTIL: 7:00,             !- Field 14
    23.9,                    !- Field 15
    UNTIL: 8:00,             !- Field 16
    23.9,                    !- Field 17
    UNTIL:17:00,             !- Field 18
    25.9,                    !- Field 19
    UNTIL: 18:00,            !- Field 20
    25.9,                    !- Field 21
    UNTIL: 24:00,            !- Field 22
    25.9,                    !- Field 23
    FOR: AllOtherDays,       !- Field 24
    UNTIL: 24:00,            !- Field 25
    25.9;                    !- Field 26

Schedule:Compact,
    Activity Schedule,       !- Name
    Any Number,              !- Schedule Type Limits Name
    Through: 12/31,          !- Field 1
    For: AllDays,            !- Field 2
    Until: 24:00,            !- Field 3
    95;                      !- Field 4

Schedule:Compact,
    All Off,                 !- Name
    Fraction,                !- Schedule Type Limits Name
    Through: 12/31,          !- Field 1
    For: AllDays,            !- Field 2
    Until: 24:00,            !- Field 3
    0.0;                     !- Field 4

Schedule:Compact,
    All On,                  !- Name
    Fraction,                !- Schedule Type Limits Name
    Through: 12/31,          !- Field 1
    For: AllDays,            !- Field 2
    Until: 24:00,            !- Field 3
    1;                       !- Field 4

Schedule:Compact,
    Exterior_Lgt_ALWAYS_ON,  !- Name
    Fraction,                !- Schedule Type Limits Name
    Through: 12/31,          !- Field 1
    For: AllDays,            !- Field 2
    Until: 24:00,            !- Field 3
    1;                       !- Field 4

Schedule:Compact,
    ALWAYS_ON,               !- Name
    Fraction,                !- Schedule Type Limits Name
    Through: 12/31,          !- Field 1
    For: AllDays,            !- Field 2
    Until: 24:00,            !- Field 3
    1;                       !- Field 4

Schedule:Compact,
    COMPACT HVAC-ALWAYS 1,   !- Name
    COMPACT HVAC Any Number, !- Schedule Type Limits Name
    Through: 12/31,          !- Field 1
    For: AllDays,            !- Field 2
    Until: 24:00,            !- Field 3
    1;                       !- Field 4

Schedule:Compact,
    ZONE CONTROL TYPE SCHED, !- Name
    Control Type,            !- Schedule Type Limits Name
    Through: 12/31,          !- Field 1
    For: Weekdays Weekends Holidays Customday1 Customday2,  !- Field 2
    Until: 24:00,            !- Field 3
    4,                       !- Field 4
    For: SummerDesignDay,    !- Field 5
    Until: 24:00,            !- Field 6
    2,                       !- Field 7
    For: WinterDesignDay,    !- Field 8
    Until: 24:00,            !- Field 9
    1;                       !- Field 10

Schedule:Compact,
    COMPACT HVAC-ALWAYS 4,   !- Name
    COMPACT HVAC Any Number, !- Schedule Type Limits Name
    Through: 12/31,          !- Field 1
    For: AllDays,            !- Field 2
    Until: 24:00,            !- Field 3
    4;                       !- Field 4

Schedule:Compact,
    COMPACT HVAC-ALWAYS 0,   !- Name
    COMPACT HVAC Any Number, !- Schedule Type Limits Name
    Through: 12/31,          !- Field 1
    For: AllDays,            !- Field 2
    Until: 24:00,            !- Field 3
    0;                       !- Field 4

Schedule:Compact,
    SHWSys1-Loop-Temp-Schedule,  !- Name
    Temperature,             !- Schedule Type Limits Name
    Through: 12/31,          !- Field 1
    For: AllDays,            !- Field 2
    Until: 24:00,            !- Field 3
    60;                      !- Field 4

Schedule:Compact,
    SHWSys1 Water Heater Setpoint Temperature Schedule,  !- Name
    Temperature,             !- Schedule Type Limits Name
    Through: 12/31,          !- Field 1
    For: AllDays,            !- Field 2
    Until: 24:00,            !- Field 3
    60.0;                    !- Field 4

Schedule:Compact,
    SHWSys1 Water Heater Ambient Temperature Schedule,  !- Name
    Temperature,             !- Schedule Type Limits Name
    Through: 12/31,          !- Field 1
    For: AllDays,            !- Field 2
    Until: 24:00,            !- Field 3
    22.0;                    !- Field 4

Schedule:Compact,
    SHW TARGET TEMP SCHED,   !- Name
    Temperature,             !- Schedule Type Limits Name
    Through: 12/31,          !- Field 1
    For: AllDays,            !- Field 2
    Until: 24:00,            !- Field 3
    48.8888888888889;        !- Field 4

Schedule:Compact,
    SHW SUPPLY TEMP SCHED,   !- Name
    Temperature,             !- Schedule Type Limits Name
    Through: 12/31,          !- Field 1
    For: AllDays,            !- Field 2
    Until: 24:00,            !- Field 3
    48.8888888888889;        !- Field 4

Schedule:Compact,
    SHW Latent fract sched,  !- Name
    Fraction,                !- Schedule Type Limits Name
    Through: 12/31,          !- Field 1
    For: AllDays,            !- Field 2
    Until: 24:00,            !- Field 3
    0.05;                    !- Field 4

Schedule:Compact,
    SHW Sensible fract sched,!- Name
    Fraction,                !- Schedule Type Limits Name
    Through: 12/31,          !- Field 1
    For: AllDays,            !- Field 2
    Until: 24:00,            !- Field 3
    0.2;                     !- Field 4

Schedule:Compact,
    PlantOnSched,            !- Name
    OnOff,                   !- Schedule Type Limits Name
    Through: 12/31,          !- Field 1
    For: AllDays,            !- Field 2
    Until: 24:00,            !- Field 3
    1.0;                     !- Field 4

Schedule:Compact,
    Ambient Temp Schedule,   !- Name
    Temperature,             !- Schedule Type Limits Name
    Through: 12/31,          !- Field 1
    For: AllDays,            !- Field 2
    Until: 24:00,            !- Field 3
    22.0;                    !- Field 4

Schedule:Compact,
    APT_DHW_SCH,             !- Name
    Fraction,                !- Schedule Type Limits Name
    THROUGH: 12/31,          !- Field 1
    FOR: AllDays,            !- Field 2
    UNTIL: 1:00,             !- Field 3
    0.08,                    !- Field 4
    UNTIL: 2:00,             !- Field 5
    0.04,                    !- Field 6
    UNTIL: 3:00,             !- Field 7
    0.01,                    !- Field 8
    UNTIL: 4:00,             !- Field 9
    0.01,                    !- Field 10
    UNTIL: 5:00,             !- Field 11
    0.04,                    !- Field 12
    UNTIL: 6:00,             !- Field 13
    0.27,                    !- Field 14
    UNTIL: 7:00,             !- Field 15
    0.94,                    !- Field 16
    UNTIL: 8:00,             !- Field 17
    1.00,                    !- Field 18
    UNTIL: 9:00,             !- Field 19
    0.96,                    !- Field 20
    UNTIL: 10:00,            !- Field 21
    0.84,                    !- Field 22
    UNTIL: 11:00,            !- Field 23
    0.76,                    !- Field 24
    UNTIL: 12:00,            !- Field 25
    0.61,                    !- Field 26
    UNTIL: 13:00,            !- Field 27
    0.53,                    !- Field 28
    UNTIL: 14:00,            !- Field 29
    0.47,                    !- Field 30
    UNTIL: 15:00,            !- Field 31
    0.41,                    !- Field 32
    UNTIL: 16:00,            !- Field 33
    0.47,                    !- Field 34
    UNTIL: 17:00,            !- Field 35
    0.55,                    !- Field 36
    UNTIL: 18:00,            !- Field 37
    0.73,                    !- Field 38
    UNTIL: 19:00,            !- Field 39
    0.86,                    !- Field 40
    UNTIL: 20:00,            !- Field 41
    0.82,                    !- Field 42
    UNTIL: 21:00,            !- Field 43
    0.75,                    !- Field 44
    UNTIL: 22:00,            !- Field 45
    0.61,                    !- Field 46
    UNTIL: 23:00,            !- Field 47
    0.53,                    !- Field 48
    UNTIL: 24:00,            !- Field 49
    0.29;                    !- Field 50

Schedule:Compact,