!- Windows Line endings 

Version,
    9.2;                      !- Version Identifier

SimulationControl,
    Yes,                      !- Do Zone Sizing Calculation
    Yes,                      !- Do System Sizing Calculation
    Yes,                      !- Do Plant Sizing Calculation
    No,                       !- Run Simulation for Sizing Periods
    YES;                      !- Run Simulation for Weather File Run Periods

Building,
    BASESchoolPrimary,        !- Name
    0,                        !- North Axis
    City,                     !- Terrain
    0.04,                     !- Loads Convergence Tolerance Value
    0.2,                      !- Temperature Convergence Tolerance Value
    FullInteriorAndExterior,    !- Solar Distribution
    25,                       !- Maximum Number of Warmup Days
    6;                        !- Minimum Number of Warmup Days

ShadowCalculation,
    AverageOverDaysInFrequency,    !- Calculation Method
    30,                       !- Calculation Frequency
    15000;                    !- Maximum Figures in Shadow Overlap Calculations

SurfaceConvectionAlgorithm:Inside,
    TARP;                     !- Algorithm

SurfaceConvectionAlgorithm:Outside,
    TARP;                     !- Algorithm

HeatBalanceAlgorithm,
    ConductionTransferFunction,    !- Algorithm
    200;                      !- Surface Temperature Upper Limit

Timestep,
    6;                        !- Number of Timesteps per Hour

ConvergenceLimits,
    1,                        !- Minimum System Timestep
    20;                       !- Maximum HVAC Iterations

Site:Location,
    New.York-John.F.Kennedy.Intl.AP_NY_USA WMO=744860,    !- Name
    40.66,                    !- Latitude
    -73.8,                    !- Longitude
    -5,                       !- Time Zone
    7;                        !- Elevation

SizingPeriod:DesignDay,
    New.York-John.F.Kennedy.Intl.AP_NY_USA Ann Htg 99.6% Condns DB,    !- Name
    1,                        !- Month
    21,                       !- Day of Month
    WinterDesignDay,          !- Day Type
    -10.7,                    !- Maximum DryBulb Temperature
    0,                        !- Daily DryBulb Temperature Range
    DefaultMultipliers,       !- DryBulb Temperature Range Modifier Type
    ,                         !- DryBulb Temperature Range Modifier Day Schedule Name
    Wetbulb,                  !- Humidity Condition Type
    -10.7,                    !- Wetbulb or DewPoint at Maximum DryBulb
    ,                         !- Humidity Condition Day Schedule Name
    ,                         !- Humidity Ratio at Maximum DryBulb
    ,                         !- Enthalpy at Maximum DryBulb
    ,                         !- Daily WetBulb Temperature Range
    101241,                   !- Barometric Pressure
    7.5,                      !- Wind Speed
    320,                      !- Wind Direction
    No,                       !- Rain Indicator
    No,                       !- Snow Indicator
    No,                       !- Daylight Saving Time Indicator
    ASHRAEClearSky,           !- Solar Model Indicator
    ,                         !- Beam Solar Day Schedule Name
    ,                         !- Diffuse Solar Day Schedule Name
    ,                         !- ASHRAE Clear Sky Optical Depth for Beam Irradiance taub
    ,                         !- ASHRAE Clear Sky Optical Depth for Diffuse Irradiance taud
    0;                        !- Sky Clearness

SizingPeriod:DesignDay,
    New.York-John.F.Kennedy.Intl.AP_NY_USA Ann Clg .4% Condns DB=>MWB,    !- Name
    7,                        !- Month
    21,                       !- Day of Month
    SummerDesignDay,          !- Day Type
    32.1,                     !- Maximum DryBulb Temperature
    7.4,                      !- Daily DryBulb Temperature Range
    DefaultMultipliers,       !- DryBulb Temperature Range Modifier Type
    ,                         !- DryBulb Temperature Range Modifier Day Schedule Name
    Wetbulb,                  !- Humidity Condition Type
    23.1,                     !- Wetbulb or DewPoint at Maximum DryBulb
    ,                         !- Humidity Condition Day Schedule Name
    ,                         !- Humidity Ratio at Maximum DryBulb
    ,                         !- Enthalpy at Maximum DryBulb
    ,                         !- Daily WetBulb Temperature Range
    101241,                   !- Barometric Pressure
    5.6,                      !- Wind Speed
    230,                      !- Wind Direction
    No,                       !- Rain Indicator
    No,                       !- Snow Indicator
    No,                       !- Daylight Saving Time Indicator
    ASHRAETau,                !- Solar Model Indicator
    ,                         !- Beam Solar Day Schedule Name
    ,                         !- Diffuse Solar Day Schedule Name
    0.541,                    !- ASHRAE Clear Sky Optical Depth for Beam Irradiance taub
    1.8;                      !- ASHRAE Clear Sky Optical Depth for Diffuse Irradiance taud

RunPeriod,
    RUNPERIOD 1,              !- Name
    1,                        !- Begin Month
    1,                        !- Begin Day of Month
    ,                         !- Begin Year
    12,                       !- End Month
    31,                       !- End Day of Month
    ,                         !- End Year
    Sunday,                   !- Day of Week for Start Day
    No,                       !- Use Weather File Holidays and Special Days
    No,                       !- Use Weather File Daylight Saving Period
    No,                       !- Apply Weekend Holiday Rule
    Yes,                      !- Use Weather File Rain Indicators
    Yes;                      !- Use Weather File Snow Indicators

RunPeriodControl:SpecialDays,
    New Years Day,            !- Name
    January 1,                !- Start Date
    1,                        !- Duration
    Holiday;                  !- Special Day Type

RunPeriodControl:SpecialDays,
    Veterans Day,             !- Name
    November 11,              !- Start Date
    1,                        !- Duration
    Holiday;                  !- Special Day Type

RunPeriodControl:SpecialDays,
    Christmas,                !- Name
    December 25,              !- Start Date
    1,                        !- Duration
    Holiday;                  !- Special Day Type

RunPeriodControl:SpecialDays,
    Independence Day,         !- Name
    July 4,                   !- Start Date
    1,                        !- Duration
    Holiday;                  !- Special Day Type

RunPeriodControl:SpecialDays,
    MLK Day,                  !- Name
    3rd Monday in January,    !- Start Date
    1,                        !- Duration
    Holiday;                  !- Special Day Type

RunPeriodControl:SpecialDays,
    Presidents Day,           !- Name
    3rd Monday in February,    !- Start Date
    1,                        !- Duration
    Holiday;                  !- Special Day Type

RunPeriodControl:SpecialDays,
    Memorial Day,             !- Name
    Last Monday in May,       !- Start Date
    1,                        !- Duration
    Holiday;                  !- Special Day Type

RunPeriodControl:SpecialDays,
    Labor Day,                !- Name
    1st Monday in September,    !- Start Date
    1,                        !- Duration
    Holiday;                  !- Special Day Type

RunPeriodControl:SpecialDays,
    Columbus Day,             !- Name
    2nd Monday in October,    !- Start Date
    1,                        !- Duration
    Holiday;                  !- Special Day Type

RunPeriodControl:SpecialDays,
    Thanksgiving,             !- Name
    4th Thursday in November,    !- Start Date
    1,                        !- Duration
    Holiday;                  !- Special Day Type

RunPeriodControl:DaylightSavingTime,
    2nd Sunday in March,      !- Start Date
    1st Sunday in November;    !- End Date

Site:GroundTemperature:FCfactorMethod,
    14,                       !- January Ground Temperature
    7.3,                      !- February Ground Temperature
    3.3,                      !- March Ground Temperature
    1.2,                      !- April Ground Temperature
    -0.2,                     !- May Ground Temperature
    5.6,                      !- June Ground Temperature
    10.9,                     !- July Ground Temperature
    16.1,                     !- August Ground Temperature
    21.7,                     !- September Ground Temperature
    25,                       !- October Ground Temperature
    24.8,                     !- November Ground Temperature
    19.9;                     !- December Ground Temperature

Site:WaterMainsTemperature,
    Correlation,              !- Calculation Method
    ,                         !- Temperature Schedule Name
    12.4666666666667,         !- Annual Average Outdoor Air Temperature
    25.2;                     !- Maximum Difference In Monthly Average Outdoor Air Temperatures

ScheduleTypeLimits,
    Any Number;               !- Name

ScheduleTypeLimits,
    Fraction,                 !- Name
    0,                        !- Lower Limit Value
    1,                        !- Upper Limit Value
    CONTINUOUS;               !- Numeric Type

ScheduleTypeLimits,
    Temperature,              !- Name
    -60,                      !- Lower Limit Value
    200,                      !- Upper Limit Value
    CONTINUOUS;               !- Numeric Type

ScheduleTypeLimits,
    On/Off,                   !- Name
    0,                        !- Lower Limit Value
    1,                        !- Upper Limit Value
    DISCRETE;                 !- Numeric Type

ScheduleTypeLimits,
    Control Type,             !- Name
    0,                        !- Lower Limit Value
    4,                        !- Upper Limit Value
    DISCRETE;                 !- Numeric Type

ScheduleTypeLimits,
    Humidity,                 !- Name
    10,                       !- Lower Limit Value
    90,                       !- Upper Limit Value
    CONTINUOUS;               !- Numeric Type

ScheduleTypeLimits,
    Number;                   !- Name

Schedule:Compact,
    BLDG_LIGHT_BATH_SCH,      !- Name
    Fraction,                 !- Schedule Type Limits Name
    Through: 6/30,            !- Field 1
    For: Weekdays,            !- Field 2
    Until: 7:00,              !- Field 3
    0.1773,                   !- Field 4
    Until: 8:00,              !- Field 5
    0.9,                      !- Field 6
    Until: 21:00,             !- Field 7
    0.594,                    !- Field 8
    Until: 24:00,             !- Field 9
    0.1773,                   !- Field 10
    For: SummerDesignDay,     !- Field 11
    Until: 24:00,             !- Field 12
    1,                        !- Field 13
    For: WinterDesignDay,     !- Field 14
    Until: 24:00,             !- Field 15
    0,                        !- Field 16
    For: WeekEnds Holidays AllOtherDays,    !- Field 17
    Until: 24:00,             !- Field 18
    0.1773,                   !- Field 19
    Through: 9/1,             !- Field 20
    For: Weekdays,            !- Field 21
    Until: 8:00,              !- Field 22
    0.1773,                   !- Field 23
    Until: 20:00,             !- Field 24
    0.33,                     !- Field 25
    Until: 21:00,             !- Field 26
    0.117018,                 !- Field 27
    Until: 24:00,             !- Field 28
    0.1773,                   !- Field 29
    For: SummerDesignDay,     !- Field 30
    Until: 24:00,             !- Field 31
    1,                        !- Field 32
    For: WinterDesignDay,     !- Field 33
    Until: 24:00,             !- Field 34
    0,                        !- Field 35
    For: WeekEnds Holidays AllOtherDays,    !- Field 36
    Until: 24:00,             !- Field 37
    0.1773,                   !- Field 38
    Through: 12/31,           !- Field 39
    For: Weekdays,            !- Field 40
    Until: 7:00,              !- Field 41
    0.1773,                   !- Field 42
    Until: 8:00,              !- Field 43
    0.9,                      !- Field 44
    Until: 21:00,             !- Field 45
    0.594,                    !- Field 46
    Until: 24:00,             !- Field 47
    0.1773,                   !- Field 48
    For: SummerDesignDay,     !- Field 49
    Until: 24:00,             !- Field 50
    1,                        !- Field 51
    For: WinterDesignDay,     !- Field 52
    Until: 24:00,             !- Field 53
    0,                        !- Field 54
    For: WeekEnds Holidays AllOtherDays,    !- Field 55
    Until: 24:00,             !- Field 56
    0.1773;                   !- Field 57

Schedule:Compact,
    BLDG_LIGHT_CLASSROOM_SCH,    !- Name
    Fraction,                 !- Schedule Type Limits Name
    Through: 6/30,            !- Field 1
    For: Weekdays,            !- Field 2
    Until: 7:00,              !- Field 3
    0.1773,                   !- Field 4
    Until: 8:00,              !- Field 5
    0.9,                      !- Field 6
    Until: 21:00,             !- Field 7
    0.5982912,                !- Field 8
    Until: 24:00,             !- Field 9
    0.1773,                   !- Field 10
    For: SummerDesignDay,     !- Field 11
    Until: 24:00,             !- Field 12
    1,                        !- Field 13
    For: WinterDesignDay,     !- Field 14
    Until: 24:00,             !- Field 15
    0,                        !- Field 16
    For: WeekEnds Holidays AllOtherDays,    !- Field 17
    Until: 24:00,             !- Field 18
    0.1773,                   !- Field 19
    Through: 9/1,             !- Field 20
    For: Weekdays,            !- Field 21
    Until: 8:00,              !- Field 22
    0.1773,                   !- Field 23
    Until: 20:00,             !- Field 24
    0.332384,                 !- Field 25
    Until: 21:00,             !- Field 26
    0.1178633664,             !- Field 27
    Until: 24:00,             !- Field 28
    0.1773,                   !- Field 29
    For: SummerDesignDay,     !- Field 30
    Until: 24:00,             !- Field 31
    1,                        !- Field 32
    For: WinterDesignDay,     !- Field 33
    Until: 24:00,             !- Field 34
    0,                        !- Field 35
    For: WeekEnds Holidays AllOtherDays,    !- Field 36
    Until: 24:00,             !- Field 37
    0.1773,                   !- Field 38
    Through: 12/31,           !- Field 39
    For: Weekdays,            !- Field 40
    Until: 7:00,              !- Field 41
    0.1773,                   !- Field 42
    Until: 8:00,              !- Field 43
    0.9,                      !- Field 44
    Until: 21:00,             !- Field 45
    0.5982912,                !- Field 46
    Until: 24:00,             !- Field 47
    0.1773,                   !- Field 48
    For: SummerDesignDay,     !- Field 49
    Until: 24:00,             !- Field 50
    1,                        !- Field 51
    For: WinterDesignDay,     !- Field 52
    Until: 24:00,             !- Field 53
    0,                        !- Field 54
    For: WeekEnds Holidays AllOtherDays,    !- Field 55
    Until: 24:00,             !- Field 56
    0.1773;                   !- Field 57

Schedule:Compact,
    BLDG_LIGHT_CORRIDOR_SCH,    !- Name
    Fraction,                 !- Schedule Type Limits Name
    Through: 6/30,            !- Field 1
    For: Weekdays,            !- Field 2
    Until: 7:00,              !- Field 3
    0.1773,                   !- Field 4
    Until: 8:00,              !- Field 5
    0.9,                      !- Field 6
    Until: 21:00,             !- Field 7
    0.560781,                 !- Field 8
    Until: 24:00,             !- Field 9
    0.1773,                   !- Field 10
    For: SummerDesignDay,     !- Field 11
    Until: 24:00,             !- Field 12
    1,                        !- Field 13
    For: WinterDesignDay,     !- Field 14
    Until: 24:00,             !- Field 15
    0,                        !- Field 16
    For: WeekEnds Holidays AllOtherDays,    !- Field 17
    Until: 24:00,             !- Field 18
    0.1773,                   !- Field 19
    Through: 9/1,             !- Field 20
    For: Weekdays,            !- Field 21
    Until: 8:00,              !- Field 22
    0.1773,                   !- Field 23
    Until: 20:00,             !- Field 24
    0.311545,                 !- Field 25
    Until: 21:00,             !- Field 26
    0.110473857,              !- Field 27
    Until: 24:00,             !- Field 28
    0.1773,                   !- Field 29
    For: SummerDesignDay,     !- Field 30
    Until: 24:00,             !- Field 31
    1,                        !- Field 32
    For: WinterDesignDay,     !- Field 33
    Until: 24:00,             !- Field 34
    0,                        !- Field 35
    For: WeekEnds Holidays AllOtherDays,    !- Field 36
    Until: 24:00,             !- Field 37
    0.1773,                   !- Field 38
    Through: 12/31,           !- Field 39
    For: Weekdays,            !- Field 40
    Until: 7:00,              !- Field 41
    0.1773,                   !- Field 42
    Until: 8:00,              !- Field 43
    0.9,                      !- Field 44
    Until: 21:00,             !- Field 45
    0.560781,                 !- Field 46
    Until: 24:00,             !- Field 47
    0.1773,                   !- Field 48
    For: SummerDesignDay,     !- Field 49
    Until: 24:00,             !- Field 50
    1,                        !- Field 51
    For: WinterDesignDay,     !- Field 52
    Until: 24:00,             !- Field 53
    0,                        !- Field 54
    For: WeekEnds Holidays AllOtherDays,    !- Field 55
    Until: 24:00,             !- Field 56
    0.1773;                   !- Field 57

Schedule:Compact,
    BLDG_LIGHT_GYM_SCH,       !- Name
    Fraction,                 !- Schedule Type Limits Name
    Through: 6/30,            !- Field 1
    For: Weekdays,            !- Field 2
    Until: 7:00,              !- Field 3
    0.1773,                   !- Field 4
    Until: 8:00,              !- Field 5
    0.9,                      !- Field 6
    Until: 21:00,             !- Field 7
    0.88605,                  !- Field 8
    Until: 24:00,             !- Field 9
    0.1773,                   !- Field 10
    For: SummerDesignDay,     !- Field 11
    Until: 24:00,             !- Field 12
    1,                        !- Field 13
    For: WinterDesignDay,     !- Field 14
    Until: 24:00,             !- Field 15
    0,                        !- Field 16
    For: WeekEnds Holidays AllOtherDays,    !- Field 17
    Until: 24:00,             !- Field 18
    0.1773,                   !- Field 19
    Through: 9/1,             !- Field 20
    For: Weekdays,            !- Field 21
    Until: 8:00,              !- Field 22
    0.1773,                   !- Field 23
    Until: 20:00,             !- Field 24
    0.49225,                  !- Field 25
    Until: 21:00,             !- Field 26
    0.17455185,               !- Field 27
    Until: 24:00,             !- Field 28
    0.1773,                   !- Field 29
    For: SummerDesignDay,     !- Field 30
    Until: 24:00,             !- Field 31
    1,                        !- Field 32
    For: WinterDesignDay,     !- Field 33
    Until: 24:00,             !- Field 34
    0,                        !- Field 35
    For: WeekEnds Holidays AllOtherDays,    !- Field 36
    Until: 24:00,             !- Field 37
    0.1773,                   !- Field 38
    Through: 12/31,           !- Field 39
    For: Weekdays,            !- Field 40
    Until: 7:00,              !- Field 41
    0.1773,                   !- Field 42
    Until: 8:00,              !- Field 43
    0.9,                      !- Field 44
    Until: 21:00,             !- Field 45
    0.88605,                  !- Field 46
    Until: 24:00,             !- Field 47
    0.1773,                   !- Field 48
    For: SummerDesignDay,     !- Field 49
    Until: 24:00,             !- Field 50
    1,                        !- Field 51
    For: WinterDesignDay,     !- Field 52
    Until: 24:00,             !- Field 53
    0,                        !- Field 54
    For: WeekEnds Holidays AllOtherDays,    !- Field 55
    Until: 24:00,             !- Field 56
    0.1773;                   !- Field 57

Schedule:Compact,
    BLDG_LIGHT_LIBRARY_SCH,    !- Name
    Fraction,                 !- Schedule Type Limits Name
    Through: 6/30,            !- Field 1
    For: Weekdays,            !- Field 2
    Until: 7:00,              !- Field 3
    0.1773,                   !- Field 4
    Until: 8:00,              !- Field 5
    0.9,                      !- Field 6
    Until: 21:00,             !- Field 7
    0.8325,                   !- Field 8
    Until: 24:00,             !- Field 9
    0.1773,                   !- Field 10
    For: SummerDesignDay,     !- Field 11
    Until: 24:00,             !- Field 12
    1,                        !- Field 13
    For: WinterDesignDay,     !- Field 14
    Until: 24:00,             !- Field 15
    0,                        !- Field 16
    For: WeekEnds Holidays AllOtherDays,    !- Field 17
    Until: 24:00,             !- Field 18
    0.1773,                   !- Field 19
    Through: 9/1,             !- Field 20
    For: Weekdays,            !- Field 21
    Until: 8:00,              !- Field 22
    0.1773,                   !- Field 23
    Until: 20:00,             !- Field 24
    0.4625,                   !- Field 25
    Until: 21:00,             !- Field 26
    0.1640025,                !- Field 27
    Until: 24:00,             !- Field 28
    0.1773,                   !- Field 29
    For: SummerDesignDay,     !- Field 30
    Until: 24:00,             !- Field 31
    1,                        !- Field 32
    For: WinterDesignDay,     !- Field 33
    Until: 24:00,             !- Field 34
    0,                        !- Field 35
    For: WeekEnds Holidays AllOtherDays,    !- Field 36
    Until: 24:00,             !- Field 37
    0.1773,                   !- Field 38
    Through: 12/31,           !- Field 39
    For: Weekdays,            !- Field 40
    Until: 7:00,              !- Field 41
    0.1773,                   !- Field 42
    Until: 8:00,              !- Field 43
    0.9,                      !- Field 44
    Until: 21:00,             !- Field 45
    0.8325,                   !- Field 46
    Until: 24:00,             !- Field 47
    0.1773,                   !- Field 48
    For: SummerDesignDay,     !- Field 49
    Until: 24:00,             !- Field 50
    1,                        !- Field 51
    For: WinterDesignDay,     !- Field 52
    Until: 24:00,             !- Field 53
    0,                        !- Field 54
    For: WeekEnds Holidays AllOtherDays,    !- Field 55
    Until: 24:00,             !- Field 56
    0.1773;                   !- Field 57

Schedule:Compact,
    BLDG_LIGHT_LOBBYFLR1_SCH,    !- Name
    Fraction,                 !- Schedule Type Limits Name
    Through: 6/30,            !- Field 1
    For: Weekdays,            !- Field 2
    Until: 7:00,              !- Field 3
    0.1773,                   !- Field 4
    Until: 8:00,              !- Field 5
    0.9,                      !- Field 6
    Until: 21:00,             !- Field 7
    0.855,                    !- Field 8
    Until: 24:00,             !- Field 9
    0.1773,                   !- Field 10
    For: SummerDesignDay,     !- Field 11
    Until: 24:00,             !- Field 12
    1,                        !- Field 13
    For: WinterDesignDay,     !- Field 14
    Until: 24:00,             !- Field 15
    0,                        !- Field 16
    For: WeekEnds Holidays AllOtherDays,    !- Field 17
    Until: 24:00,             !- Field 18
    0.1773,                   !- Field 19
    Through: 9/1,             !- Field 20
    For: Weekdays,            !- Field 21
    Until: 8:00,              !- Field 22
    0.1773,                   !- Field 23
    Until: 20:00,             !- Field 24
    0.475,                    !- Field 25
    Until: 21:00,             !- Field 26
    0.168435,                 !- Field 27
    Until: 24:00,             !- Field 28
    0.1773,                   !- Field 29
    For: SummerDesignDay,     !- Field 30
    Until: 24:00,             !- Field 31
    1,                        !- Field 32
    For: WinterDesignDay,     !- Field 33
    Until: 24:00,             !- Field 34
    0,                        !- Field 35
    For: WeekEnds Holidays AllOtherDays,    !- Field 36
    Until: 24:00,             !- Field 37
    0.1773,                   !- Field 38
    Through: 12/31,           !- Field 39
    For: Weekdays,            !- Field 40
    Until: 7:00,              !- Field 41
    0.1773,                   !- Field 42
    Until: 8:00,              !- Field 43
    0.9,                      !- Field 44
    Until: 21:00,             !- Field 45
    0.855,                    !- Field 46
    Until: 24:00,             !- Field 47
    0.1773,                   !- Field 48
    For: SummerDesignDay,     !- Field 49
    Until: 24:00,             !- Field 50
    1,                        !- Field 51
    For: WinterDesignDay,     !- Field 52
    Until: 24:00,             !- Field 53
    0,                        !- Field 54
    For: WeekEnds Holidays AllOtherDays,    !- Field 55
    Until: 24:00,             !- Field 56
    0.1773;                   !- Field 57

Schedule:Compact,
    BLDG_LIGHT_OFFICE_SCH,    !- Name
    Fraction,                 !- Schedule Type Limits Name
    Through: 6/30,            !- Field 1
    For: Weekdays,            !- Field 2
    Until: 7:00,              !- Field 3
    0.1773,                   !- Field 4
    Until: 8:00,              !- Field 5
    0.9,                      !- Field 6
    Until: 21:00,             !- Field 7
    0.7548561,                !- Field 8
    Until: 24:00,             !- Field 9
    0.1773,                   !- Field 10
    For: SummerDesignDay,     !- Field 11
    Until: 24:00,             !- Field 12
    1,                        !- Field 13
    For: WinterDesignDay,     !- Field 14
    Until: 24:00,             !- Field 15
    0,                        !- Field 16
    For: WeekEnds Holidays AllOtherDays,    !- Field 17
    Until: 24:00,             !- Field 18
    0.1773,                   !- Field 19
    Through: 9/1,             !- Field 20
    For: Weekdays,            !- Field 21
    Until: 8:00,              !- Field 22
    0.1773,                   !- Field 23
    Until: 20:00,             !- Field 24
    0.4193645,                !- Field 25
    Until: 21:00,             !- Field 26
    0.1487066517,             !- Field 27
    Until: 24:00,             !- Field 28
    0.1773,                   !- Field 29
    For: SummerDesignDay,     !- Field 30
    Until: 24:00,             !- Field 31
    1,                        !- Field 32
    For: WinterDesignDay,     !- Field 33
    Until: 24:00,             !- Field 34
    0,                        !- Field 35
    For: WeekEnds Holidays AllOtherDays,    !- Field 36
    Until: 24:00,             !- Field 37
    0.1773,                   !- Field 38
    Through: 12/31,           !- Field 39
    For: Weekdays,            !- Field 40
    Until: 7:00,              !- Field 41
    0.1773,                   !- Field 42
    Until: 8:00,              !- Field 43
    0.9,                      !- Field 44
    Until: 21:00,             !- Field 45
    0.7548561,                !- Field 46
    Until: 24:00,             !- Field 47
    0.1773,                   !- Field 48
    For: SummerDesignDay,     !- Field 49
    Until: 24:00,             !- Field 50
    1,                        !- Field 51
    For: WinterDesignDay,     !- Field 52
    Until: 24:00,             !- Field 53
    0,                        !- Field 54
    For: WeekEnds Holidays AllOtherDays,    !- Field 55
    Until: 24:00,             !- Field 56
    0.1773;                   !- Field 57

Schedule:Compact,
    BLDG_LIGHT_SCH,           !- Name
    Fraction,                 !- Schedule Type Limits Name
    Through: 6/30,            !- Field 1
    For: Weekdays,            !- Field 2
    Until: 7:00,              !- Field 3
    0.1773,                   !- Field 4
    Until: 21:00,             !- Field 5
    0.9,                      !- Field 6
    Until: 24:00,             !- Field 7
    0.1773,                   !- Field 8
    For: SummerDesignDay,     !- Field 9
    Until: 24:00,             !- Field 10
    1,                        !- Field 11
    For: WinterDesignDay,     !- Field 12
    Until: 24:00,             !- Field 13
    0,                        !- Field 14
    For: WeekEnds Holidays AllOtherDays,    !- Field 15
    Until: 24:00,             !- Field 16
    0.1773,                   !- Field 17
    Through: 9/1,             !- Field 18
    For: Weekdays,            !- Field 19
    Until: 8:00,              !- Field 20
    0.1773,                   !- Field 21
    Until: 20:00,             !- Field 22
    0.5,                      !- Field 23
    Until: 24:00,             !- Field 24
    0.1773,                   !- Field 25
    For: SummerDesignDay,     !- Field 26
    Until: 24:00,             !- Field 27
    1,                        !- Field 28
    For: WinterDesignDay,     !- Field 29
    Until: 24:00,             !- Field 30
    0,                        !- Field 31
    For: WeekEnds Holidays AllOtherDays,    !- Field 32
    Until: 24:00,             !- Field 33
    0.1773,                   !- Field 34
    Through: 12/31,           !- Field 35
    For: Weekdays,            !- Field 36
    Until: 7:00,              !- Field 37
    0.1773,                   !- Field 38
    Until: 21:00,             !- Field 39
    0.9,                      !- Field 40
    Until: 24:00,             !- Field 41
    0.1773,                   !- Field 42
    For: SummerDesignDay,     !- Field 43
    Until: 24:00,             !- Field 44